

        *** GPGPU-Sim Simulator Version 3.2.2  [build 0] ***


GPGPU-Sim PTX: simulation mode 0 (can change with PTX_SIM_MODE_FUNC environment variable:
               1=functional simulation only, 0=detailed performance simulator)
GPGPU-Sim: Configuration options:

-network_mode                           1 # Interconnection network mode
-inter_config_file   config_fermi_islip.icnt # Interconnection network config file
-gpgpu_ptx_use_cuobjdump                    1 # Use cuobjdump to extract ptx and sass from binaries
-gpgpu_experimental_lib_support                    0 # Try to extract code from cuda libraries [Broken because of unknown cudaGetExportTable]
-gpgpu_ptx_convert_to_ptxplus                    0 # Convert SASS (native ISA) to ptxplus and run ptxplus
-gpgpu_ptx_force_max_capability                   20 # Force maximum compute capability
-gpgpu_ptx_inst_debug_to_file                    0 # Dump executed instructions' debug information to file
-gpgpu_ptx_inst_debug_file       inst_debug.txt # Executed instructions' debug output file
-gpgpu_ptx_inst_debug_thread_uid                    1 # Thread UID for executed instructions' debug output
-gpgpu_simd_model                       1 # 1 = post-dominator
-gpgpu_shader_core_pipeline              1536:32 # shader core pipeline config, i.e., {<nthread>:<warpsize>}
-gpgpu_tex_cache:l1  4:128:24,L:R:m:N:L,F:128:4,128:2 # per-shader L1 texture cache  (READ-ONLY) config  {<nsets>:<bsize>:<assoc>,<rep>:<wr>:<alloc>:<wr_alloc>,<mshr>:<N>:<merge>,<mq>:<rf>}
-gpgpu_const_cache:l1 64:64:2,L:R:f:N:L,A:2:32,4 # per-shader L1 constant memory cache  (READ-ONLY) config  {<nsets>:<bsize>:<assoc>,<rep>:<wr>:<alloc>:<wr_alloc>,<mshr>:<N>:<merge>,<mq>} 
-gpgpu_cache:il1     4:128:4,L:R:f:N:L,A:2:32,4 # shader L1 instruction cache config  {<nsets>:<bsize>:<assoc>,<rep>:<wr>:<alloc>:<wr_alloc>,<mshr>:<N>:<merge>,<mq>} 
-gpgpu_cache:dl1     32:128:4,L:L:m:N:H,A:32:8,8 # per-shader L1 data cache config  {<nsets>:<bsize>:<assoc>,<rep>:<wr>:<alloc>:<wr_alloc>,<mshr>:<N>:<merge>,<mq> | none}
-gpgpu_cache:dl1PrefL1                 none # per-shader L1 data cache config  {<nsets>:<bsize>:<assoc>,<rep>:<wr>:<alloc>:<wr_alloc>,<mshr>:<N>:<merge>,<mq> | none}
-gpgpu_cache:dl1PreShared                 none # per-shader L1 data cache config  {<nsets>:<bsize>:<assoc>,<rep>:<wr>:<alloc>:<wr_alloc>,<mshr>:<N>:<merge>,<mq> | none}
-gmem_skip_L1D                          0 # global memory access skip L1D cache (implements -Xptxas -dlcm=cg, default=no skip)
-gpgpu_perfect_mem                      0 # enable perfect memory mode (no cache miss)
-n_regfile_gating_group                    4 # group of lanes that should be read/written together)
-gpgpu_clock_gated_reg_file                    0 # enable clock gated reg file for power calculations
-gpgpu_clock_gated_lanes                    0 # enable clock gated lanes for power calculations
-gpgpu_shader_registers                32768 # Number of registers per shader core. Limits number of concurrent CTAs. (default 8192)
-gpgpu_shader_cta                       8 # Maximum number of concurrent CTAs in shader (default 8)
-gpgpu_num_cta_barriers                   16 # Maximum number of named barriers per CTA (default 16)
-gpgpu_n_clusters                      15 # number of processing clusters
-gpgpu_n_cores_per_cluster                    1 # number of simd cores per cluster
-gpgpu_n_cluster_ejection_buffer_size                    8 # number of packets in ejection buffer
-gpgpu_n_ldst_response_buffer_size                    2 # number of response packets in ld/st unit ejection buffer
-gpgpu_shmem_size                   16384 # Size of shared memory per shader core (default 16kB)
-gpgpu_shmem_size                   49152 # Size of shared memory per shader core (default 16kB)
-gpgpu_shmem_size_PrefL1                16384 # Size of shared memory per shader core (default 16kB)
-gpgpu_shmem_size_PrefShared                16384 # Size of shared memory per shader core (default 16kB)
-gpgpu_shmem_num_banks                   32 # Number of banks in the shared memory in each shader core (default 16)
-gpgpu_shmem_limited_broadcast                    0 # Limit shared memory to do one broadcast per cycle (default on)
-gpgpu_shmem_warp_parts                    1 # Number of portions a warp is divided into for shared memory bank conflict check 
-gpgpu_warpdistro_shader                   -1 # Specify which shader core to collect the warp size distribution from
-gpgpu_warp_issue_shader                    0 # Specify which shader core to collect the warp issue distribution from
-gpgpu_local_mem_map                    1 # Mapping from local memory space address to simulated GPU physical address space (default = enabled)
-gpgpu_num_reg_banks                   16 # Number of register banks (default = 8)
-gpgpu_reg_bank_use_warp_id                    0 # Use warp ID in mapping registers to banks (default = off)
-gpgpu_operand_collector_num_units_sp                    6 # number of collector units (default = 4)
-gpgpu_operand_collector_num_units_sfu                    8 # number of collector units (default = 4)
-gpgpu_operand_collector_num_units_mem                    2 # number of collector units (default = 2)
-gpgpu_operand_collector_num_units_gen                    0 # number of collector units (default = 0)
-gpgpu_operand_collector_num_in_ports_sp                    2 # number of collector unit in ports (default = 1)
-gpgpu_operand_collector_num_in_ports_sfu                    1 # number of collector unit in ports (default = 1)
-gpgpu_operand_collector_num_in_ports_mem                    1 # number of collector unit in ports (default = 1)
-gpgpu_operand_collector_num_in_ports_gen                    0 # number of collector unit in ports (default = 0)
-gpgpu_operand_collector_num_out_ports_sp                    2 # number of collector unit in ports (default = 1)
-gpgpu_operand_collector_num_out_ports_sfu                    1 # number of collector unit in ports (default = 1)
-gpgpu_operand_collector_num_out_ports_mem                    1 # number of collector unit in ports (default = 1)
-gpgpu_operand_collector_num_out_ports_gen                    0 # number of collector unit in ports (default = 0)
-gpgpu_coalesce_arch                   13 # Coalescing arch (default = 13, anything else is off for now)
-gpgpu_num_sched_per_core                    2 # Number of warp schedulers per core
-gpgpu_max_insn_issue_per_warp                    1 # Max number of instructions that can be issued per warp in one cycle by scheduler
-gpgpu_simt_core_sim_order                    1 # Select the simulation order of cores in a cluster (0=Fix, 1=Round-Robin)
-gpgpu_pipeline_widths        2,1,1,2,1,1,2 # Pipeline widths ID_OC_SP,ID_OC_SFU,ID_OC_MEM,OC_EX_SP,OC_EX_SFU,OC_EX_MEM,EX_WB
-gpgpu_num_sp_units                     2 # Number of SP units (default=1)
-gpgpu_num_sfu_units                    1 # Number of SF units (default=1)
-gpgpu_num_mem_units                    1 # Number if ldst units (default=1) WARNING: not hooked up to anything
-gpgpu_scheduler                      gto # Scheduler configuration: < lrr | gto | two_level_active > If two_level_active:<num_active_warps>:<inner_prioritization>:<outer_prioritization>For complete list of prioritization values see shader.h enum scheduler_prioritization_typeDefault: gto
-gpgpu_dram_scheduler                    1 # 0 = fifo, 1 = FR-FCFS (defaul)
-gpgpu_dram_partition_queues              8:8:8:8 # i2$:$2d:d2$:$2i
-l2_ideal                               0 # Use a ideal L2 cache that always hit
-gpgpu_cache:dl2     64:128:8,L:B:m:W:L,A:32:4,4:0,32 # unified banked L2 data cache config  {<nsets>:<bsize>:<assoc>,<rep>:<wr>:<alloc>:<wr_alloc>,<mshr>:<N>:<merge>,<mq>}
-gpgpu_cache:dl2_texture_only                    0 # L2 cache used for texture only
-gpgpu_n_mem                            6 # number of memory modules (e.g. memory controllers) in gpu
-gpgpu_n_sub_partition_per_mchannel                    2 # number of memory subpartition in each memory module
-gpgpu_n_mem_per_ctrlr                    2 # number of memory chips per memory controller
-gpgpu_memlatency_stat                   14 # track and display latency statistics 0x2 enables MC, 0x4 enables queue logs
-gpgpu_frfcfs_dram_sched_queue_size                   16 # 0 = unlimited (default); # entries per chip
-gpgpu_dram_return_queue_size                   84 # 0 = unlimited (default); # entries per chip
-gpgpu_dram_buswidth                    4 # default = 4 bytes (8 bytes per cycle at DDR)
-gpgpu_dram_burst_length                    8 # Burst length of each DRAM request (default = 4 data bus cycle)
-dram_data_command_freq_ratio                    4 # Frequency ratio between DRAM data bus and command bus (default = 2 times, i.e. DDR)
-gpgpu_dram_timing_opt nbk=16:CCD=2:RRD=6:RCD=12:RAS=28:RP=12:RC=40: CL=12:WL=4:CDLR=5:WR=12:nbkgrp=4:CCDL=3:RTPL=2 # DRAM timing parameters = {nbk:tCCD:tRRD:tRCD:tRAS:tRP:tRC:CL:WL:tCDLR:tWR:nbkgrp:tCCDL:tRTPL}
-rop_latency                          120 # ROP queue latency (default 85)
-dram_latency                         100 # DRAM latency (default 30)
-gpgpu_mem_addr_mapping dramid@8;00000000.00000000.00000000.00000000.0000RRRR.RRRRRRRR.BBBCCCCB.CCSSSSSS # mapping memory address to dram model {dramid@<start bit>;<memory address map>}
-gpgpu_mem_addr_test                    0 # run sweep test to check address mapping for aliased address
-gpgpu_mem_address_mask                    1 # 0 = old addressing mask, 1 = new addressing mask, 2 = new add. mask + flipped bank sel and chip sel bits
-gpuwattch_xml_file  gpuwattch_gtx480.xml # GPUWattch XML file
-power_simulation_enabled                    1 # Turn on power simulator (1=On, 0=Off)
-power_per_cycle_dump                    0 # Dump detailed power output each cycle
-power_trace_enabled                    0 # produce a file for the power trace (1=On, 0=Off)
-power_trace_zlevel                     6 # Compression level of the power trace output log (0=no comp, 9=highest)
-steady_power_levels_enabled                    0 # produce a file for the steady power levels (1=On, 0=Off)
-steady_state_definition                  8:4 # allowed deviation:number of samples
-gpgpu_max_cycle                        0 # terminates gpu simulation early (0 = no limit)
-gpgpu_max_insn                         0 # terminates gpu simulation early (0 = no limit)
-gpgpu_max_cta                          0 # terminates gpu simulation early (0 = no limit)
-gpgpu_runtime_stat                   500 # display runtime statistics such as dram utilization {<freq>:<flag>}
-liveness_message_freq                    1 # Minimum number of seconds between simulation liveness messages (0 = always print)
-gpgpu_flush_l1_cache                    0 # Flush L1 cache at the end of each kernel call
-gpgpu_flush_l2_cache                    0 # Flush L2 cache at the end of each kernel call
-gpgpu_deadlock_detect                    1 # Stop the simulation at deadlock (1=on (default), 0=off)
-gpgpu_ptx_instruction_classification                    0 # if enabled will classify ptx instruction types per kernel (Max 255 kernels now)
-gpgpu_ptx_sim_mode                     0 # Select between Performance (default) or Functional simulation (1)
-gpgpu_clock_domains 700.0:700.0:700.0:700.0 # Clock Domain Frequencies in MhZ {<Core Clock>:<ICNT Clock>:<L2 Clock>:<DRAM Clock>}
-gpgpu_max_concurrent_kernel                    8 # maximum kernels that can run concurrently on GPU
-gpgpu_cflog_interval                    0 # Interval between each snapshot in control flow logger
-visualizer_enabled                     0 # Turn on visualizer output (1=On, 0=Off)
-visualizer_outputfile                 NULL # Specifies the output log file for visualizer
-visualizer_zlevel                      6 # Compression level of the visualizer output log (0=no comp, 9=highest)
-trace_enabled                          0 # Turn on traces
-trace_components                    none # comma seperated list of traces to enable. Complete list found in trace_streams.tup. Default none
-trace_sampling_core                    0 # The core which is printed using CORE_DPRINTF. Default 0
-trace_sampling_memory_partition                   -1 # The memory partition which is printed using MEMPART_DPRINTF. Default -1 (i.e. all)
-enable_ptx_file_line_stats                    1 # Turn on PTX source line statistic profiling. (1 = On)
-ptx_line_stats_filename gpgpu_inst_stats.txt # Output file for PTX source line statistics.
-save_embedded_ptx                      0 # saves ptx files embedded in binary as <n>.ptx
-keep                                   0 # keep intermediate files created by GPGPU-Sim when interfacing with external programs
-gpgpu_ptx_save_converted_ptxplus                    0 # Saved converted ptxplus to a file
-ptx_opcode_latency_int         4,13,4,5,145 # Opcode latencies for integers <ADD,MAX,MUL,MAD,DIV>Default 1,1,19,25,145
-ptx_opcode_latency_fp          4,13,4,5,39 # Opcode latencies for single precision floating points <ADD,MAX,MUL,MAD,DIV>Default 1,1,1,1,30
-ptx_opcode_latency_dp         8,19,8,8,330 # Opcode latencies for double precision floating points <ADD,MAX,MUL,MAD,DIV>Default 8,8,8,8,335
-ptx_opcode_initiation_int            1,2,2,1,8 # Opcode initiation intervals for integers <ADD,MAX,MUL,MAD,DIV>Default 1,1,4,4,32
-ptx_opcode_initiation_fp            1,2,1,1,4 # Opcode initiation intervals for single precision floating points <ADD,MAX,MUL,MAD,DIV>Default 1,1,1,1,5
-ptx_opcode_initiation_dp         8,16,8,8,130 # Opcode initiation intervals for double precision floating points <ADD,MAX,MUL,MAD,DIV>Default 8,8,8,8,130
DRAM Timing Options:
nbk                                    16 # number of banks
CCD                                     2 # column to column delay
RRD                                     6 # minimal delay between activation of rows in different banks
RCD                                    12 # row to column delay
RAS                                    28 # time needed to activate row
RP                                     12 # time needed to precharge (deactivate) row
RC                                     40 # row cycle time
CDLR                                    5 # switching from write to read (changes tWTR)
WR                                     12 # last data-in to row precharge
CL                                     12 # CAS latency
WL                                      4 # Write latency
nbkgrp                                  4 # number of bank groups
CCDL                                    3 # column to column delay between accesses to different bank groups
RTPL                                    2 # read to precharge delay between accesses to different bank groups
Total number of memory sub partition = 12
addr_dec_mask[CHIP]  = 0000000000000000 	high:64 low:0
addr_dec_mask[BK]    = 000000000000e100 	high:16 low:8
addr_dec_mask[ROW]   = 000000000fff0000 	high:28 low:16
addr_dec_mask[COL]   = 0000000000001eff 	high:13 low:0
addr_dec_mask[BURST] = 000000000000003f 	high:6 low:0
sub_partition_id_mask = 0000000000000100
GPGPU-Sim uArch: clock freqs: 700000000.000000:700000000.000000:700000000.000000:700000000.000000
GPGPU-Sim uArch: clock periods: 0.00000000142857142857:0.00000000142857142857:0.00000000142857142857:0.00000000142857142857
*** Initializing Memory Statistics ***
GPGPU-Sim uArch: interconnect node map (shaderID+MemID to icntID)
GPGPU-Sim uArch: Memory nodes ID start from index: 15
GPGPU-Sim uArch:    0   1   2   3   4
GPGPU-Sim uArch:    5   6   7   8   9
GPGPU-Sim uArch:   10  11  12  13  14
GPGPU-Sim uArch:   15  16  17  18  19
GPGPU-Sim uArch:   20  21  22  23  24
GPGPU-Sim uArch:   25  26
GPGPU-Sim uArch: interconnect node reverse map (icntID to shaderID+MemID)
GPGPU-Sim uArch: Memory nodes start from ID: 15
GPGPU-Sim uArch:    0   1   2   3   4
GPGPU-Sim uArch:    5   6   7   8   9
GPGPU-Sim uArch:   10  11  12  13  14
GPGPU-Sim uArch:   15  16  17  18  19
GPGPU-Sim uArch:   20  21  22  23  24
GPGPU-Sim uArch:   25  26
07b75004035201a3e825f0934708d91f  /home/gpgpu-sim/Documents/Dynamic_GPU_Cache_Bypass_Project/benchmarks/test/backprop-rodinia-3.1
GPGPU-Sim uArch: performance model initialization complete.
GPGPU-Sim PTX: __cudaRegisterFatBinary, fat_cubin_handle = 1, filename=backprop_cuda.cu
self exe links to: /home/gpgpu-sim/Documents/Dynamic_GPU_Cache_Bypass_Project/benchmarks/test/backprop-rodinia-3.1
Running md5sum using "md5sum /home/gpgpu-sim/Documents/Dynamic_GPU_Cache_Bypass_Project/benchmarks/test/backprop-rodinia-3.1 "
Running cuobjdump using "$CUDA_INSTALL_PATH/bin/cuobjdump -ptx -elf -sass /home/gpgpu-sim/Documents/Dynamic_GPU_Cache_Bypass_Project/benchmarks/test/backprop-rodinia-3.1 > _cuobjdump_complete_output_qb5Xe2"
Parsing file _cuobjdump_complete_output_qb5Xe2
######### cuobjdump parser ########
## Adding new section ELF
Adding arch: sm_30
Adding identifier: backprop_cuda.cu
## Adding new section PTX
Adding ptx filename: _cuobjdump_1.ptx
Adding arch: sm_30
Adding identifier: backprop_cuda.cu
## Adding new section ELF
Adding arch: sm_13
Adding identifier: backprop_cuda.cu
## Adding new section PTX
Adding ptx filename: _cuobjdump_2.ptx
Adding arch: sm_13
Adding identifier: backprop_cuda.cu
## Adding new section ELF
Adding arch: sm_20
Adding identifier: backprop_cuda.cu
## Adding new section PTX
Adding ptx filename: _cuobjdump_3.ptx
Adding arch: sm_20
Adding identifier: backprop_cuda.cu
## Adding new section ELF
Adding arch: sm_10
Adding identifier: backprop_cuda.cu
## Adding new section PTX
Adding ptx filename: _cuobjdump_4.ptx
Adding arch: sm_10
Adding identifier: backprop_cuda.cu
Done parsing!!!
GPGPU-Sim PTX: __cudaRegisterFunction _Z24bpnn_adjust_weights_cudaPfiS_iS_S_ : hostFun 0x0x4020c0, fat_cubin_handle = 1
GPGPU-Sim PTX: allocating shared region for "__cuda_local_var_18302_34_non_const_input_node" from 0x0 to 0x40 (shared memory space)
GPGPU-Sim PTX: allocating shared region for "__cuda_local_var_18303_34_non_const_weight_matrix" from 0x80 to 0x480 (shared memory space)
GPGPU-Sim PTX: instruction assembly for function '_Z22bpnn_layerforward_CUDAPfS_S_S_ii'...   done.
GPGPU-Sim PTX: finding reconvergence points for '_Z22bpnn_layerforward_CUDAPfS_S_S_ii'...
GPGPU-Sim PTX: Finding dominators for '_Z22bpnn_layerforward_CUDAPfS_S_S_ii'...
GPGPU-Sim PTX: Finding immediate dominators for '_Z22bpnn_layerforward_CUDAPfS_S_S_ii'...
GPGPU-Sim PTX: Finding postdominators for '_Z22bpnn_layerforward_CUDAPfS_S_S_ii'...
GPGPU-Sim PTX: Finding immediate postdominators for '_Z22bpnn_layerforward_CUDAPfS_S_S_ii'...
GPGPU-Sim PTX: pre-decoding instructions for '_Z22bpnn_layerforward_CUDAPfS_S_S_ii'...
GPGPU-Sim PTX: reconvergence points for _Z22bpnn_layerforward_CUDAPfS_S_S_ii...
GPGPU-Sim PTX:  1 (potential) branch divergence @  PC=0x0b0 (_1.ptx:69) @%p2 bra BB0_2;
GPGPU-Sim PTX:    immediate post dominator      @  PC=0x0e8 (_1.ptx:81) bar.sync 0;
GPGPU-Sim PTX:  2 (potential) branch divergence @  PC=0x198 (_1.ptx:112) @%p3 bra BB0_7;
GPGPU-Sim PTX:    immediate post dominator      @  PC=0x278 (_1.ptx:160) ld.shared.f32 %f17, [%rl8];
GPGPU-Sim PTX:  3 (potential) branch divergence @  PC=0x1e8 (_1.ptx:131) @%p4 bra BB0_6;
GPGPU-Sim PTX:    immediate post dominator      @  PC=0x250 (_1.ptx:150) bar.sync 0;
GPGPU-Sim PTX:  4 (potential) branch divergence @  PC=0x270 (_1.ptx:156) @%p5 bra BB0_4;
GPGPU-Sim PTX:    immediate post dominator      @  PC=0x278 (_1.ptx:160) ld.shared.f32 %f17, [%rl8];
GPGPU-Sim PTX:  5 (potential) branch divergence @  PC=0x290 (_1.ptx:165) @%p1 bra BB0_9;
GPGPU-Sim PTX:    immediate post dominator      @ 
GPGPU-Sim PTX: ... end of reconvergence points for _Z22bpnn_layerforward_CUDAPfS_S_S_ii
GPGPU-Sim PTX: ... done pre-decoding instructions for '_Z22bpnn_layerforward_CUDAPfS_S_S_ii'.
GPGPU-Sim PTX: instruction assembly for function '_Z24bpnn_adjust_weights_cudaPfiS_iS_S_'...   done.
GPGPU-Sim PTX: finding reconvergence points for '_Z24bpnn_adjust_weights_cudaPfiS_iS_S_'...
GPGPU-Sim PTX: Finding dominators for '_Z24bpnn_adjust_weights_cudaPfiS_iS_S_'...
GPGPU-Sim PTX: Finding immediate dominators for '_Z24bpnn_adjust_weights_cudaPfiS_iS_S_'...
GPGPU-Sim PTX: Finding postdominators for '_Z24bpnn_adjust_weights_cudaPfiS_iS_S_'...
GPGPU-Sim PTX: Finding immediate postdominators for '_Z24bpnn_adjust_weights_cudaPfiS_iS_S_'...
GPGPU-Sim PTX: pre-decoding instructions for '_Z24bpnn_adjust_weights_cudaPfiS_iS_S_'...
GPGPU-Sim PTX: reconvergence points for _Z24bpnn_adjust_weights_cudaPfiS_iS_S_...
GPGPU-Sim PTX:  1 (potential) branch divergence @  PC=0x508 (_1.ptx:289) @%p1 bra BB1_2;
GPGPU-Sim PTX:    immediate post dominator      @ 
GPGPU-Sim PTX: ... end of reconvergence points for _Z24bpnn_adjust_weights_cudaPfiS_iS_S_
GPGPU-Sim PTX: ... done pre-decoding instructions for '_Z24bpnn_adjust_weights_cudaPfiS_iS_S_'.
GPGPU-Sim PTX: finished parsing EMBEDDED .ptx file _1.ptx
Adding _cuobjdump_3.ptx with cubin handle 1
GPGPU-Sim PTX: extracting embedded .ptx to temporary file "_ptx_W0SrsO"
Running: cat _ptx_W0SrsO | sed 's/.version 1.5/.version 1.4/' | sed 's/, texmode_independent//' | sed 's/\(\.extern \.const\[1\] .b8 \w\+\)\[\]/\1\[1\]/' | sed 's/const\[.\]/const\[0\]/g' > _ptx2_KqWXFA
GPGPU-Sim PTX: generating ptxinfo using "$CUDA_INSTALL_PATH/bin/ptxas --gpu-name=sm_20 -v _ptx2_KqWXFA --output-file  /dev/null 2> _ptx_W0SrsOinfo"
GPGPU-Sim PTX: Kernel '_Z22bpnn_layerforward_CUDAPfS_S_S_ii' : regs=10, lmem=0, smem=1088, cmem=72
GPGPU-Sim PTX: Kernel '_Z24bpnn_adjust_weights_cudaPfiS_iS_S_' : regs=18, lmem=0, smem=0, cmem=80
GPGPU-Sim PTX: removing ptxinfo using "rm -f _ptx_W0SrsO _ptx2_KqWXFA _ptx_W0SrsOinfo"
GPGPU-Sim PTX: loading globals with explicit initializers... 
GPGPU-Sim PTX: finished loading globals (0 bytes total).
GPGPU-Sim PTX: loading constants with explicit initializers...  done.
GPGPU-Sim PTX: __cudaRegisterFunction _Z22bpnn_layerforward_CUDAPfS_S_S_ii : hostFun 0x0x401fd0, fat_cubin_handle = 1
Random number generator seed: 7
Input layer size : 65536
Starting training kernel
Performing GPU computation

GPGPU-Sim PTX: cudaLaunch for 0x0x401fd0 (mode=performance simulation) on stream 0
GPGPU-Sim PTX: pushing kernel '_Z22bpnn_layerforward_CUDAPfS_S_S_ii' to stream 0, gridDim= (1,4096,1) blockDim = (16,16,1) 
kernel '_Z22bpnn_layerforward_CUDAPfS_S_S_ii' transfer to GPU hardware scheduler
GPGPU-Sim uArch: Shader 1 bind to kernel 1 '_Z22bpnn_layerforward_CUDAPfS_S_S_ii'
GPGPU-Sim uArch: CTA/core = 6, limited by: threads
GPGPU-Sim uArch: core:  1, cta: 0 initialized @(1,0)
GPGPU-Sim uArch: Shader 2 bind to kernel 1 '_Z22bpnn_layerforward_CUDAPfS_S_S_ii'
GPGPU-Sim uArch: core:  2, cta: 0 initialized @(1,0)
GPGPU-Sim uArch: Shader 3 bind to kernel 1 '_Z22bpnn_layerforward_CUDAPfS_S_S_ii'
GPGPU-Sim uArch: core:  3, cta: 0 initialized @(1,0)
GPGPU-Sim uArch: Shader 4 bind to kernel 1 '_Z22bpnn_layerforward_CUDAPfS_S_S_ii'
GPGPU-Sim uArch: core:  4, cta: 0 initialized @(1,0)
GPGPU-Sim uArch: Shader 5 bind to kernel 1 '_Z22bpnn_layerforward_CUDAPfS_S_S_ii'
GPGPU-Sim uArch: core:  5, cta: 0 initialized @(1,0)
GPGPU-Sim uArch: Shader 6 bind to kernel 1 '_Z22bpnn_layerforward_CUDAPfS_S_S_ii'
GPGPU-Sim uArch: core:  6, cta: 0 initialized @(1,0)
GPGPU-Sim uArch: Shader 7 bind to kernel 1 '_Z22bpnn_layerforward_CUDAPfS_S_S_ii'
GPGPU-Sim uArch: core:  7, cta: 0 initialized @(1,0)
GPGPU-Sim uArch: Shader 8 bind to kernel 1 '_Z22bpnn_layerforward_CUDAPfS_S_S_ii'
GPGPU-Sim uArch: core:  8, cta: 0 initialized @(1,0)
GPGPU-Sim uArch: Shader 9 bind to kernel 1 '_Z22bpnn_layerforward_CUDAPfS_S_S_ii'
GPGPU-Sim uArch: core:  9, cta: 0 initialized @(1,0)
GPGPU-Sim uArch: Shader 10 bind to kernel 1 '_Z22bpnn_layerforward_CUDAPfS_S_S_ii'
GPGPU-Sim uArch: core: 10, cta: 0 initialized @(1,0)
GPGPU-Sim uArch: Shader 11 bind to kernel 1 '_Z22bpnn_layerforward_CUDAPfS_S_S_ii'
GPGPU-Sim uArch: core: 11, cta: 0 initialized @(1,0)
GPGPU-Sim uArch: Shader 12 bind to kernel 1 '_Z22bpnn_layerforward_CUDAPfS_S_S_ii'
GPGPU-Sim uArch: core: 12, cta: 0 initialized @(1,0)
GPGPU-Sim uArch: Shader 13 bind to kernel 1 '_Z22bpnn_layerforward_CUDAPfS_S_S_ii'
GPGPU-Sim uArch: core: 13, cta: 0 initialized @(1,0)
GPGPU-Sim uArch: Shader 14 bind to kernel 1 '_Z22bpnn_layerforward_CUDAPfS_S_S_ii'
GPGPU-Sim uArch: core: 14, cta: 0 initialized @(1,0)
GPGPU-Sim uArch: Shader 0 bind to kernel 1 '_Z22bpnn_layerforward_CUDAPfS_S_S_ii'
GPGPU-Sim uArch: core:  0, cta: 0 initialized @(1,0)
GPGPU-Sim uArch: core:  1, cta: 1 initialized @(2,0)
GPGPU-Sim uArch: core:  2, cta: 1 initialized @(2,0)
GPGPU-Sim uArch: core:  3, cta: 1 initialized @(2,0)
GPGPU-Sim uArch: core:  4, cta: 1 initialized @(2,0)
GPGPU-Sim uArch: core:  5, cta: 1 initialized @(2,0)
GPGPU-Sim uArch: core:  6, cta: 1 initialized @(2,0)
GPGPU-Sim uArch: core:  7, cta: 1 initialized @(2,0)
GPGPU-Sim uArch: core:  8, cta: 1 initialized @(2,0)
GPGPU-Sim uArch: core:  9, cta: 1 initialized @(2,0)
GPGPU-Sim uArch: core: 10, cta: 1 initialized @(2,0)
GPGPU-Sim uArch: core: 11, cta: 1 initialized @(2,0)
GPGPU-Sim uArch: core: 12, cta: 1 initialized @(2,0)
GPGPU-Sim uArch: core: 13, cta: 1 initialized @(2,0)
GPGPU-Sim uArch: core: 14, cta: 1 initialized @(2,0)
GPGPU-Sim uArch: core:  0, cta: 1 initialized @(2,0)
GPGPU-Sim uArch: core:  1, cta: 2 initialized @(3,0)
GPGPU-Sim uArch: core:  2, cta: 2 initialized @(3,0)
GPGPU-Sim uArch: core:  3, cta: 2 initialized @(3,0)
GPGPU-Sim uArch: core:  4, cta: 2 initialized @(3,0)
GPGPU-Sim uArch: core:  5, cta: 2 initialized @(3,0)
GPGPU-Sim uArch: core:  6, cta: 2 initialized @(3,0)
GPGPU-Sim uArch: core:  7, cta: 2 initialized @(3,0)
GPGPU-Sim uArch: core:  8, cta: 2 initialized @(3,0)
GPGPU-Sim uArch: core:  9, cta: 2 initialized @(3,0)
GPGPU-Sim uArch: core: 10, cta: 2 initialized @(3,0)
GPGPU-Sim uArch: core: 11, cta: 2 initialized @(3,0)
GPGPU-Sim uArch: core: 12, cta: 2 initialized @(3,0)
GPGPU-Sim uArch: core: 13, cta: 2 initialized @(3,0)
GPGPU-Sim uArch: core: 14, cta: 2 initialized @(3,0)
GPGPU-Sim uArch: core:  0, cta: 2 initialized @(3,0)
GPGPU-Sim uArch: core:  1, cta: 3 initialized @(4,0)
GPGPU-Sim uArch: core:  2, cta: 3 initialized @(4,0)
GPGPU-Sim uArch: core:  3, cta: 3 initialized @(4,0)
GPGPU-Sim uArch: core:  4, cta: 3 initialized @(4,0)
GPGPU-Sim uArch: core:  5, cta: 3 initialized @(4,0)
GPGPU-Sim uArch: core:  6, cta: 3 initialized @(4,0)
GPGPU-Sim uArch: core:  7, cta: 3 initialized @(4,0)
GPGPU-Sim uArch: core:  8, cta: 3 initialized @(4,0)
GPGPU-Sim uArch: core:  9, cta: 3 initialized @(4,0)
GPGPU-Sim uArch: core: 10, cta: 3 initialized @(4,0)
GPGPU-Sim uArch: core: 11, cta: 3 initialized @(4,0)
GPGPU-Sim uArch: core: 12, cta: 3 initialized @(4,0)
GPGPU-Sim uArch: core: 13, cta: 3 initialized @(4,0)
GPGPU-Sim uArch: core: 14, cta: 3 initialized @(4,0)
GPGPU-Sim uArch: core:  0, cta: 3 initialized @(4,0)
GPGPU-Sim uArch: core:  1, cta: 4 initialized @(5,0)
GPGPU-Sim uArch: core:  2, cta: 4 initialized @(5,0)
GPGPU-Sim uArch: core:  3, cta: 4 initialized @(5,0)
GPGPU-Sim uArch: core:  4, cta: 4 initialized @(5,0)
GPGPU-Sim uArch: core:  5, cta: 4 initialized @(5,0)
GPGPU-Sim uArch: core:  6, cta: 4 initialized @(5,0)
GPGPU-Sim uArch: core:  7, cta: 4 initialized @(5,0)
GPGPU-Sim uArch: core:  8, cta: 4 initialized @(5,0)
GPGPU-Sim uArch: core:  9, cta: 4 initialized @(5,0)
GPGPU-Sim uArch: core: 10, cta: 4 initialized @(5,0)
GPGPU-Sim uArch: core: 11, cta: 4 initialized @(5,0)
GPGPU-Sim uArch: core: 12, cta: 4 initialized @(5,0)
GPGPU-Sim uArch: core: 13, cta: 4 initialized @(5,0)
GPGPU-Sim uArch: core: 14, cta: 4 initialized @(5,0)
GPGPU-Sim uArch: core:  0, cta: 4 initialized @(5,0)
GPGPU-Sim uArch: core:  1, cta: 5 initialized @(6,0)
GPGPU-Sim uArch: core:  2, cta: 5 initialized @(6,0)
GPGPU-Sim uArch: core:  3, cta: 5 initialized @(6,0)
GPGPU-Sim uArch: core:  4, cta: 5 initialized @(6,0)
GPGPU-Sim uArch: core:  5, cta: 5 initialized @(6,0)
GPGPU-Sim uArch: core:  6, cta: 5 initialized @(6,0)
GPGPU-Sim uArch: core:  7, cta: 5 initialized @(6,0)
GPGPU-Sim uArch: core:  8, cta: 5 initialized @(6,0)
GPGPU-Sim uArch: core:  9, cta: 5 initialized @(6,0)
GPGPU-Sim uArch: core: 10, cta: 5 initialized @(6,0)
GPGPU-Sim uArch: core: 11, cta: 5 initialized @(6,0)
GPGPU-Sim uArch: core: 12, cta: 5 initialized @(6,0)
GPGPU-Sim uArch: core: 13, cta: 5 initialized @(6,0)
GPGPU-Sim uArch: core: 14, cta: 5 initialized @(6,0)
GPGPU-Sim uArch: core:  0, cta: 5 initialized @(6,0)
GPGPU-Sim uArch: cycles simulated: 500  inst.: 0 (ipc= 0.0) sim_rate=0 (inst/sec) elapsed = 0:0:00:03 / Fri Feb  1 10:04:12 2019
GPGPU-Sim PTX: 100000 instructions simulated : ctaid=(0,17,0) tid=(15,7,0)
GPGPU-Sim PTX: 200000 instructions simulated : ctaid=(0,47,0) tid=(15,3,0)
GPGPU-Sim PTX: 300000 instructions simulated : ctaid=(0,76,0) tid=(15,9,0)
GPGPU-Sim uArch: cycles simulated: 1000  inst.: 354592 (ipc=354.6) sim_rate=59098 (inst/sec) elapsed = 0:0:00:06 / Fri Feb  1 10:04:15 2019
GPGPU-Sim PTX: 400000 instructions simulated : ctaid=(0,71,0) tid=(15,13,0)
GPGPU-Sim PTX: 500000 instructions simulated : ctaid=(0,78,0) tid=(5,5,0)
GPGPU-Sim uArch: cycles simulated: 1500  inst.: 537746 (ipc=358.5) sim_rate=67218 (inst/sec) elapsed = 0:0:00:08 / Fri Feb  1 10:04:17 2019
GPGPU-Sim PTX: 600000 instructions simulated : ctaid=(0,86,0) tid=(13,7,0)
GPGPU-Sim uArch: cycles simulated: 2000  inst.: 608000 (ipc=304.0) sim_rate=60800 (inst/sec) elapsed = 0:0:00:10 / Fri Feb  1 10:04:19 2019
GPGPU-Sim PTX: 700000 instructions simulated : ctaid=(0,32,0) tid=(15,3,0)
GPGPU-Sim PTX: 800000 instructions simulated : ctaid=(0,86,0) tid=(15,13,0)
GPGPU-Sim uArch: cycles simulated: 2500  inst.: 791808 (ipc=316.7) sim_rate=65984 (inst/sec) elapsed = 0:0:00:12 / Fri Feb  1 10:04:21 2019
GPGPU-Sim uArch: cycles simulated: 3000  inst.: 834528 (ipc=278.2) sim_rate=59609 (inst/sec) elapsed = 0:0:00:14 / Fri Feb  1 10:04:23 2019
GPGPU-Sim PTX: 900000 instructions simulated : ctaid=(0,34,0) tid=(15,3,0)
GPGPU-Sim uArch: cycles simulated: 3500  inst.: 945504 (ipc=270.1) sim_rate=63033 (inst/sec) elapsed = 0:0:00:15 / Fri Feb  1 10:04:24 2019
GPGPU-Sim PTX: 1000000 instructions simulated : ctaid=(0,85,0) tid=(15,3,0)
GPGPU-Sim PTX: 1100000 instructions simulated : ctaid=(0,2,0) tid=(15,14,0)
GPGPU-Sim uArch: cycles simulated: 4000  inst.: 1107600 (ipc=276.9) sim_rate=65152 (inst/sec) elapsed = 0:0:00:17 / Fri Feb  1 10:04:26 2019
GPGPU-Sim PTX: 1200000 instructions simulated : ctaid=(0,27,0) tid=(15,11,0)
GPGPU-Sim PTX: 1300000 instructions simulated : ctaid=(0,68,0) tid=(15,11,0)
GPGPU-Sim uArch: cycles simulated: 4500  inst.: 1316928 (ipc=292.7) sim_rate=65846 (inst/sec) elapsed = 0:0:00:20 / Fri Feb  1 10:04:29 2019
GPGPU-Sim PTX: 1400000 instructions simulated : ctaid=(0,13,0) tid=(15,8,0)
GPGPU-Sim PTX: 1500000 instructions simulated : ctaid=(0,42,0) tid=(15,14,0)
GPGPU-Sim PTX: 1600000 instructions simulated : ctaid=(0,29,0) tid=(15,4,0)
GPGPU-Sim uArch: cycles simulated: 5000  inst.: 1606752 (ipc=321.4) sim_rate=73034 (inst/sec) elapsed = 0:0:00:22 / Fri Feb  1 10:04:31 2019
GPGPU-Sim PTX: 1700000 instructions simulated : ctaid=(0,21,0) tid=(15,15,0)
GPGPU-Sim PTX: 1800000 instructions simulated : ctaid=(0,8,0) tid=(15,14,0)
GPGPU-Sim PTX: 1900000 instructions simulated : ctaid=(0,85,0) tid=(15,14,0)
GPGPU-Sim uArch: cycles simulated: 5500  inst.: 1937094 (ipc=352.2) sim_rate=80712 (inst/sec) elapsed = 0:0:00:24 / Fri Feb  1 10:04:33 2019
GPGPU-Sim PTX: 2000000 instructions simulated : ctaid=(0,34,0) tid=(1,13,0)
GPGPU-Sim PTX: 2100000 instructions simulated : ctaid=(0,69,0) tid=(11,12,0)
GPGPU-Sim PTX: 2200000 instructions simulated : ctaid=(0,47,0) tid=(3,12,0)
GPGPU-Sim uArch: cycles simulated: 6000  inst.: 2179908 (ipc=363.3) sim_rate=80737 (inst/sec) elapsed = 0:0:00:27 / Fri Feb  1 10:04:36 2019
GPGPU-Sim PTX: 2300000 instructions simulated : ctaid=(0,73,0) tid=(7,9,0)
GPGPU-Sim uArch: Shader 10 finished CTA #0 (6210,0), 5 CTAs running
GPGPU-Sim uArch: core: 10, cta: 0 initialized @(6211,0)
GPGPU-Sim uArch: Shader 13 finished CTA #0 (6211,0), 5 CTAs running
GPGPU-Sim uArch: core: 13, cta: 0 initialized @(6212,0)
GPGPU-Sim uArch: Shader 14 finished CTA #0 (6227,0), 5 CTAs running
GPGPU-Sim uArch: core: 14, cta: 0 initialized @(6228,0)
GPGPU-Sim uArch: Shader 13 finished CTA #1 (6252,0), 5 CTAs running
GPGPU-Sim uArch: core: 13, cta: 1 initialized @(6253,0)
GPGPU-Sim uArch: Shader 14 finished CTA #1 (6266,0), 5 CTAs running
GPGPU-Sim uArch: core: 14, cta: 1 initialized @(6267,0)
GPGPU-Sim uArch: Shader 1 finished CTA #0 (6293,0), 5 CTAs running
GPGPU-Sim uArch: core:  1, cta: 0 initialized @(6294,0)
GPGPU-Sim uArch: Shader 2 finished CTA #0 (6300,0), 5 CTAs running
GPGPU-Sim uArch: core:  2, cta: 0 initialized @(6301,0)
GPGPU-Sim uArch: Shader 3 finished CTA #1 (6306,0), 5 CTAs running
GPGPU-Sim uArch: core:  3, cta: 1 initialized @(6307,0)
GPGPU-Sim uArch: Shader 4 finished CTA #0 (6310,0), 5 CTAs running
GPGPU-Sim uArch: core:  4, cta: 0 initialized @(6311,0)
GPGPU-Sim uArch: Shader 2 finished CTA #1 (6316,0), 5 CTAs running
GPGPU-Sim uArch: Shader 12 finished CTA #2 (6316,0), 5 CTAs running
GPGPU-Sim uArch: core: 12, cta: 2 initialized @(6317,0)
GPGPU-Sim uArch: core:  2, cta: 1 initialized @(6317,0)
GPGPU-Sim uArch: Shader 3 finished CTA #0 (6321,0), 5 CTAs running
GPGPU-Sim uArch: core:  3, cta: 0 initialized @(6322,0)
GPGPU-Sim uArch: Shader 11 finished CTA #2 (6332,0), 5 CTAs running
GPGPU-Sim uArch: core: 11, cta: 2 initialized @(6333,0)
GPGPU-Sim uArch: Shader 5 finished CTA #0 (6340,0), 5 CTAs running
GPGPU-Sim uArch: core:  5, cta: 0 initialized @(6341,0)
GPGPU-Sim uArch: Shader 7 finished CTA #0 (6350,0), 5 CTAs running
GPGPU-Sim uArch: core:  7, cta: 0 initialized @(6351,0)
GPGPU-Sim uArch: Shader 10 finished CTA #1 (6351,0), 5 CTAs running
GPGPU-Sim uArch: core: 10, cta: 1 initialized @(6352,0)
GPGPU-Sim uArch: Shader 11 finished CTA #1 (6352,0), 5 CTAs running
GPGPU-Sim uArch: core: 11, cta: 1 initialized @(6353,0)
GPGPU-Sim uArch: Shader 8 finished CTA #0 (6358,0), 5 CTAs running
GPGPU-Sim uArch: core:  8, cta: 0 initialized @(6359,0)
GPGPU-Sim uArch: Shader 9 finished CTA #1 (6367,0), 5 CTAs running
GPGPU-Sim uArch: core:  9, cta: 1 initialized @(6368,0)
GPGPU-Sim uArch: Shader 1 finished CTA #1 (6374,0), 5 CTAs running
GPGPU-Sim uArch: core:  1, cta: 1 initialized @(6375,0)
GPGPU-Sim uArch: Shader 6 finished CTA #0 (6378,0), 5 CTAs running
GPGPU-Sim uArch: core:  6, cta: 0 initialized @(6379,0)
GPGPU-Sim uArch: Shader 8 finished CTA #1 (6383,0), 5 CTAs running
GPGPU-Sim PTX: 2400000 instructions simulated : ctaid=(0,83,0) tid=(11,3,0)
GPGPU-Sim uArch: core:  8, cta: 1 initialized @(6384,0)
GPGPU-Sim uArch: Shader 9 finished CTA #0 (6388,0), 5 CTAs running
GPGPU-Sim uArch: core:  9, cta: 0 initialized @(6389,0)
GPGPU-Sim uArch: Shader 7 finished CTA #1 (6389,0), 5 CTAs running
GPGPU-Sim uArch: core:  7, cta: 1 initialized @(6390,0)
GPGPU-Sim uArch: Shader 1 finished CTA #2 (6390,0), 5 CTAs running
GPGPU-Sim uArch: core:  1, cta: 2 initialized @(6391,0)
GPGPU-Sim uArch: Shader 6 finished CTA #1 (6405,0), 5 CTAs running
GPGPU-Sim uArch: core:  6, cta: 1 initialized @(6406,0)
GPGPU-Sim uArch: Shader 0 finished CTA #0 (6417,0), 5 CTAs running
GPGPU-Sim uArch: core:  0, cta: 0 initialized @(6418,0)
GPGPU-Sim uArch: Shader 4 finished CTA #2 (6421,0), 5 CTAs running
GPGPU-Sim uArch: core:  4, cta: 2 initialized @(6422,0)
GPGPU-Sim uArch: Shader 0 finished CTA #1 (6430,0), 5 CTAs running
GPGPU-Sim uArch: core:  0, cta: 1 initialized @(6431,0)
GPGPU-Sim uArch: Shader 4 finished CTA #1 (6443,0), 5 CTAs running
GPGPU-Sim uArch: core:  4, cta: 1 initialized @(6444,0)
GPGPU-Sim uArch: Shader 5 finished CTA #1 (6448,0), 5 CTAs running
GPGPU-Sim uArch: core:  5, cta: 1 initialized @(6449,0)
GPGPU-Sim uArch: Shader 12 finished CTA #1 (6453,0), 5 CTAs running
GPGPU-Sim uArch: core: 12, cta: 1 initialized @(6454,0)
GPGPU-Sim uArch: Shader 3 finished CTA #2 (6459,0), 5 CTAs running
GPGPU-Sim uArch: core:  3, cta: 2 initialized @(6460,0)
GPGPU-Sim uArch: Shader 14 finished CTA #2 (6465,0), 5 CTAs running
GPGPU-Sim uArch: core: 14, cta: 2 initialized @(6466,0)
GPGPU-Sim uArch: cycles simulated: 6500  inst.: 2373868 (ipc=365.2) sim_rate=81857 (inst/sec) elapsed = 0:0:00:29 / Fri Feb  1 10:04:38 2019
GPGPU-Sim uArch: Shader 11 finished CTA #0 (6503,0), 5 CTAs running
GPGPU-Sim uArch: core: 11, cta: 0 initialized @(6504,0)
GPGPU-Sim uArch: Shader 7 finished CTA #2 (6527,0), 5 CTAs running
GPGPU-Sim uArch: Shader 12 finished CTA #0 (6527,0), 5 CTAs running
GPGPU-Sim uArch: core: 12, cta: 0 initialized @(6528,0)
GPGPU-Sim uArch: core:  7, cta: 2 initialized @(6528,0)
GPGPU-Sim uArch: Shader 0 finished CTA #2 (6554,0), 5 CTAs running
GPGPU-Sim uArch: core:  0, cta: 2 initialized @(6555,0)
GPGPU-Sim PTX: 2500000 instructions simulated : ctaid=(0,37,0) tid=(9,15,0)
GPGPU-Sim uArch: Shader 2 finished CTA #2 (6589,0), 5 CTAs running
GPGPU-Sim uArch: core:  2, cta: 2 initialized @(6590,0)
GPGPU-Sim uArch: Shader 13 finished CTA #2 (6605,0), 5 CTAs running
GPGPU-Sim uArch: core: 13, cta: 2 initialized @(6606,0)
GPGPU-Sim uArch: Shader 11 finished CTA #3 (6623,0), 5 CTAs running
GPGPU-Sim uArch: core: 11, cta: 3 initialized @(6624,0)
GPGPU-Sim uArch: Shader 9 finished CTA #2 (6665,0), 5 CTAs running
GPGPU-Sim uArch: core:  9, cta: 2 initialized @(6666,0)
GPGPU-Sim PTX: 2600000 instructions simulated : ctaid=(0,71,0) tid=(13,2,0)
GPGPU-Sim uArch: Shader 8 finished CTA #2 (6721,0), 5 CTAs running
GPGPU-Sim uArch: core:  8, cta: 2 initialized @(6722,0)
GPGPU-Sim uArch: Shader 10 finished CTA #2 (6744,0), 5 CTAs running
GPGPU-Sim uArch: core: 10, cta: 2 initialized @(6745,0)
GPGPU-Sim uArch: Shader 6 finished CTA #2 (6769,0), 5 CTAs running
GPGPU-Sim uArch: core:  6, cta: 2 initialized @(6770,0)
GPGPU-Sim uArch: Shader 4 finished CTA #3 (6790,0), 5 CTAs running
GPGPU-Sim uArch: core:  4, cta: 3 initialized @(6791,0)
GPGPU-Sim uArch: Shader 5 finished CTA #2 (6797,0), 5 CTAs running
GPGPU-Sim uArch: core:  5, cta: 2 initialized @(6798,0)
GPGPU-Sim uArch: Shader 1 finished CTA #3 (6831,0), 5 CTAs running
GPGPU-Sim uArch: core:  1, cta: 3 initialized @(6832,0)
GPGPU-Sim PTX: 2700000 instructions simulated : ctaid=(0,65,0) tid=(1,1,0)
GPGPU-Sim uArch: Shader 12 finished CTA #3 (6899,0), 5 CTAs running
GPGPU-Sim uArch: core: 12, cta: 3 initialized @(6900,0)
GPGPU-Sim uArch: Shader 9 finished CTA #3 (6900,0), 5 CTAs running
GPGPU-Sim uArch: core:  9, cta: 3 initialized @(6901,0)
GPGPU-Sim uArch: Shader 6 finished CTA #3 (6911,0), 5 CTAs running
GPGPU-Sim uArch: core:  6, cta: 3 initialized @(6912,0)
GPGPU-Sim uArch: Shader 7 finished CTA #3 (6951,0), 5 CTAs running
GPGPU-Sim uArch: core:  7, cta: 3 initialized @(6952,0)
GPGPU-Sim uArch: Shader 8 finished CTA #3 (6959,0), 5 CTAs running
GPGPU-Sim uArch: core:  8, cta: 3 initialized @(6960,0)
GPGPU-Sim uArch: cycles simulated: 7000  inst.: 2700888 (ipc=385.8) sim_rate=84402 (inst/sec) elapsed = 0:0:00:32 / Fri Feb  1 10:04:41 2019
GPGPU-Sim PTX: 2800000 instructions simulated : ctaid=(0,138,0) tid=(11,13,0)
GPGPU-Sim uArch: Shader 0 finished CTA #3 (7025,0), 5 CTAs running
GPGPU-Sim uArch: core:  0, cta: 3 initialized @(7026,0)
GPGPU-Sim uArch: Shader 14 finished CTA #3 (7042,0), 5 CTAs running
GPGPU-Sim uArch: core: 14, cta: 3 initialized @(7043,0)
GPGPU-Sim uArch: Shader 13 finished CTA #3 (7076,0), 5 CTAs running
GPGPU-Sim uArch: core: 13, cta: 3 initialized @(7077,0)
GPGPU-Sim uArch: Shader 10 finished CTA #3 (7088,0), 5 CTAs running
GPGPU-Sim uArch: core: 10, cta: 3 initialized @(7089,0)
GPGPU-Sim uArch: Shader 2 finished CTA #3 (7123,0), 5 CTAs running
GPGPU-Sim uArch: core:  2, cta: 3 initialized @(7124,0)
GPGPU-Sim uArch: Shader 3 finished CTA #3 (7125,0), 5 CTAs running
GPGPU-Sim uArch: core:  3, cta: 3 initialized @(7126,0)
GPGPU-Sim PTX: 2900000 instructions simulated : ctaid=(0,114,0) tid=(15,13,0)
GPGPU-Sim uArch: Shader 4 finished CTA #4 (7197,0), 5 CTAs running
GPGPU-Sim uArch: core:  4, cta: 4 initialized @(7198,0)
GPGPU-Sim uArch: Shader 5 finished CTA #3 (7213,0), 5 CTAs running
GPGPU-Sim uArch: core:  5, cta: 3 initialized @(7214,0)
GPGPU-Sim uArch: Shader 7 finished CTA #4 (7220,0), 5 CTAs running
GPGPU-Sim uArch: core:  7, cta: 4 initialized @(7221,0)
GPGPU-Sim uArch: Shader 9 finished CTA #4 (7264,0), 5 CTAs running
GPGPU-Sim uArch: core:  9, cta: 4 initialized @(7265,0)
GPGPU-Sim uArch: Shader 12 finished CTA #4 (7282,0), 5 CTAs running
GPGPU-Sim uArch: core: 12, cta: 4 initialized @(7283,0)
GPGPU-Sim uArch: Shader 11 finished CTA #4 (7318,0), 5 CTAs running
GPGPU-Sim uArch: core: 11, cta: 4 initialized @(7319,0)
GPGPU-Sim uArch: Shader 14 finished CTA #4 (7332,0), 5 CTAs running
GPGPU-Sim uArch: core: 14, cta: 4 initialized @(7333,0)
GPGPU-Sim PTX: 3000000 instructions simulated : ctaid=(0,106,0) tid=(3,8,0)
GPGPU-Sim uArch: Shader 3 finished CTA #4 (7408,0), 5 CTAs running
GPGPU-Sim uArch: core:  3, cta: 4 initialized @(7409,0)
GPGPU-Sim uArch: Shader 0 finished CTA #4 (7459,0), 5 CTAs running
GPGPU-Sim uArch: core:  0, cta: 4 initialized @(7460,0)
GPGPU-Sim uArch: cycles simulated: 7500  inst.: 2940086 (ipc=392.0) sim_rate=84002 (inst/sec) elapsed = 0:0:00:35 / Fri Feb  1 10:04:44 2019
GPGPU-Sim uArch: Shader 6 finished CTA #4 (7513,0), 5 CTAs running
GPGPU-Sim uArch: core:  6, cta: 4 initialized @(7514,0)
GPGPU-Sim uArch: Shader 2 finished CTA #4 (7526,0), 5 CTAs running
GPGPU-Sim uArch: core:  2, cta: 4 initialized @(7527,0)
GPGPU-Sim uArch: Shader 11 finished CTA #5 (7588,0), 5 CTAs running
GPGPU-Sim uArch: core: 11, cta: 5 initialized @(7589,0)
GPGPU-Sim uArch: Shader 7 finished CTA #5 (7648,0), 5 CTAs running
GPGPU-Sim uArch: core:  7, cta: 5 initialized @(7649,0)
GPGPU-Sim PTX: 3100000 instructions simulated : ctaid=(0,129,0) tid=(3,1,0)
GPGPU-Sim uArch: Shader 1 finished CTA #4 (7727,0), 5 CTAs running
GPGPU-Sim uArch: core:  1, cta: 4 initialized @(7728,0)
GPGPU-Sim uArch: Shader 8 finished CTA #4 (7730,0), 5 CTAs running
GPGPU-Sim uArch: core:  8, cta: 4 initialized @(7731,0)
GPGPU-Sim uArch: Shader 3 finished CTA #5 (7738,0), 5 CTAs running
GPGPU-Sim uArch: core:  3, cta: 5 initialized @(7739,0)
GPGPU-Sim uArch: Shader 13 finished CTA #4 (7822,0), 5 CTAs running
GPGPU-Sim uArch: core: 13, cta: 4 initialized @(7823,0)
GPGPU-Sim uArch: Shader 9 finished CTA #5 (7867,0), 5 CTAs running
GPGPU-Sim uArch: core:  9, cta: 5 initialized @(7868,0)
GPGPU-Sim uArch: Shader 5 finished CTA #4 (7887,0), 5 CTAs running
GPGPU-Sim uArch: core:  5, cta: 4 initialized @(7888,0)
GPGPU-Sim PTX: 3200000 instructions simulated : ctaid=(0,111,0) tid=(13,14,0)
GPGPU-Sim uArch: Shader 10 finished CTA #4 (7956,0), 5 CTAs running
GPGPU-Sim uArch: core: 10, cta: 4 initialized @(7957,0)
GPGPU-Sim uArch: Shader 13 finished CTA #5 (7986,0), 5 CTAs running
GPGPU-Sim uArch: core: 13, cta: 5 initialized @(7987,0)
GPGPU-Sim uArch: cycles simulated: 8000  inst.: 3121914 (ipc=390.2) sim_rate=84376 (inst/sec) elapsed = 0:0:00:37 / Fri Feb  1 10:04:46 2019
GPGPU-Sim uArch: Shader 4 finished CTA #5 (8026,0), 5 CTAs running
GPGPU-Sim uArch: core:  4, cta: 5 initialized @(8027,0)
GPGPU-Sim uArch: Shader 2 finished CTA #5 (8034,0), 5 CTAs running
GPGPU-Sim uArch: core:  2, cta: 5 initialized @(8035,0)
GPGPU-Sim uArch: Shader 1 finished CTA #5 (8133,0), 5 CTAs running
GPGPU-Sim uArch: core:  1, cta: 5 initialized @(8134,0)
GPGPU-Sim PTX: 3300000 instructions simulated : ctaid=(0,170,0) tid=(11,3,0)
GPGPU-Sim uArch: Shader 12 finished CTA #5 (8164,0), 5 CTAs running
GPGPU-Sim uArch: core: 12, cta: 5 initialized @(8165,0)
GPGPU-Sim uArch: Shader 6 finished CTA #5 (8188,0), 5 CTAs running
GPGPU-Sim uArch: core:  6, cta: 5 initialized @(8189,0)
GPGPU-Sim uArch: Shader 5 finished CTA #5 (8302,0), 5 CTAs running
GPGPU-Sim uArch: core:  5, cta: 5 initialized @(8303,0)
GPGPU-Sim uArch: Shader 14 finished CTA #5 (8312,0), 5 CTAs running
GPGPU-Sim uArch: core: 14, cta: 5 initialized @(8313,0)
GPGPU-Sim PTX: 3400000 instructions simulated : ctaid=(0,104,0) tid=(9,8,0)
GPGPU-Sim uArch: Shader 0 finished CTA #5 (8328,0), 5 CTAs running
GPGPU-Sim uArch: core:  0, cta: 5 initialized @(8329,0)
GPGPU-Sim uArch: Shader 8 finished CTA #5 (8407,0), 5 CTAs running
GPGPU-Sim uArch: core:  8, cta: 5 initialized @(8408,0)
GPGPU-Sim uArch: Shader 10 finished CTA #5 (8419,0), 5 CTAs running
GPGPU-Sim uArch: core: 10, cta: 5 initialized @(8420,0)
GPGPU-Sim PTX: 3500000 instructions simulated : ctaid=(0,95,0) tid=(5,2,0)
GPGPU-Sim uArch: cycles simulated: 8500  inst.: 3395990 (ipc=399.5) sim_rate=84899 (inst/sec) elapsed = 0:0:00:40 / Fri Feb  1 10:04:49 2019
GPGPU-Sim PTX: 3600000 instructions simulated : ctaid=(0,112,0) tid=(1,15,0)
GPGPU-Sim PTX: 3700000 instructions simulated : ctaid=(0,124,0) tid=(9,2,0)
GPGPU-Sim PTX: 3800000 instructions simulated : ctaid=(0,102,0) tid=(15,8,0)
GPGPU-Sim uArch: cycles simulated: 9000  inst.: 3713100 (ipc=412.6) sim_rate=84388 (inst/sec) elapsed = 0:0:00:44 / Fri Feb  1 10:04:53 2019
GPGPU-Sim PTX: 3900000 instructions simulated : ctaid=(0,157,0) tid=(9,9,0)
GPGPU-Sim PTX: 4000000 instructions simulated : ctaid=(0,123,0) tid=(13,0,0)
GPGPU-Sim PTX: 4100000 instructions simulated : ctaid=(0,173,0) tid=(13,15,0)
GPGPU-Sim uArch: cycles simulated: 9500  inst.: 4005966 (ipc=421.7) sim_rate=85233 (inst/sec) elapsed = 0:0:00:47 / Fri Feb  1 10:04:56 2019
GPGPU-Sim uArch: Shader 13 finished CTA #0 (9596,0), 5 CTAs running
GPGPU-Sim uArch: core: 13, cta: 0 initialized @(9597,0)
GPGPU-Sim PTX: 4200000 instructions simulated : ctaid=(0,126,0) tid=(3,2,0)
GPGPU-Sim uArch: Shader 2 finished CTA #0 (9620,0), 5 CTAs running
GPGPU-Sim uArch: core:  2, cta: 0 initialized @(9621,0)
GPGPU-Sim uArch: Shader 3 finished CTA #1 (9660,0), 5 CTAs running
GPGPU-Sim uArch: core:  3, cta: 1 initialized @(9661,0)
GPGPU-Sim uArch: Shader 14 finished CTA #0 (9726,0), 5 CTAs running
GPGPU-Sim uArch: core: 14, cta: 0 initialized @(9727,0)
GPGPU-Sim PTX: 4300000 instructions simulated : ctaid=(0,133,0) tid=(9,8,0)
GPGPU-Sim uArch: Shader 11 finished CTA #2 (9892,0), 5 CTAs running
GPGPU-Sim uArch: core: 11, cta: 2 initialized @(9893,0)
GPGPU-Sim PTX: 4400000 instructions simulated : ctaid=(0,136,0) tid=(11,2,0)
GPGPU-Sim uArch: Shader 6 finished CTA #0 (9995,0), 5 CTAs running
GPGPU-Sim uArch: core:  6, cta: 0 initialized @(9996,0)
GPGPU-Sim uArch: Shader 4 finished CTA #0 (9998,0), 5 CTAs running
GPGPU-Sim uArch: core:  4, cta: 0 initialized @(9999,0)
GPGPU-Sim uArch: cycles simulated: 10000  inst.: 4302908 (ipc=430.3) sim_rate=84370 (inst/sec) elapsed = 0:0:00:51 / Fri Feb  1 10:05:00 2019
GPGPU-Sim uArch: Shader 7 finished CTA #0 (10006,0), 5 CTAs running
GPGPU-Sim uArch: core:  7, cta: 0 initialized @(10007,0)
GPGPU-Sim uArch: Shader 9 finished CTA #0 (10021,0), 5 CTAs running
GPGPU-Sim uArch: core:  9, cta: 0 initialized @(10022,0)
GPGPU-Sim uArch: Shader 3 finished CTA #0 (10036,0), 5 CTAs running
GPGPU-Sim uArch: core:  3, cta: 0 initialized @(10037,0)
GPGPU-Sim uArch: Shader 10 finished CTA #0 (10052,0), 5 CTAs running
GPGPU-Sim uArch: core: 10, cta: 0 initialized @(10053,0)
GPGPU-Sim PTX: 4500000 instructions simulated : ctaid=(0,150,0) tid=(5,6,0)
GPGPU-Sim uArch: Shader 9 finished CTA #1 (10134,0), 5 CTAs running
GPGPU-Sim uArch: core:  9, cta: 1 initialized @(10135,0)
GPGPU-Sim uArch: Shader 8 finished CTA #0 (10174,0), 5 CTAs running
GPGPU-Sim uArch: core:  8, cta: 0 initialized @(10175,0)
GPGPU-Sim uArch: Shader 5 finished CTA #0 (10177,0), 5 CTAs running
GPGPU-Sim uArch: core:  5, cta: 0 initialized @(10178,0)
GPGPU-Sim uArch: Shader 11 finished CTA #1 (10184,0), 5 CTAs running
GPGPU-Sim uArch: core: 11, cta: 1 initialized @(10185,0)
GPGPU-Sim uArch: Shader 1 finished CTA #0 (10196,0), 5 CTAs running
GPGPU-Sim uArch: core:  1, cta: 0 initialized @(10197,0)
GPGPU-Sim uArch: Shader 12 finished CTA #2 (10226,0), 5 CTAs running
GPGPU-Sim uArch: core: 12, cta: 2 initialized @(10227,0)
GPGPU-Sim PTX: 4600000 instructions simulated : ctaid=(0,181,0) tid=(1,9,0)
GPGPU-Sim uArch: Shader 1 finished CTA #1 (10316,0), 5 CTAs running
GPGPU-Sim uArch: core:  1, cta: 1 initialized @(10317,0)
GPGPU-Sim uArch: Shader 6 finished CTA #1 (10337,0), 5 CTAs running
GPGPU-Sim uArch: core:  6, cta: 1 initialized @(10338,0)
GPGPU-Sim uArch: Shader 10 finished CTA #1 (10348,0), 5 CTAs running
GPGPU-Sim uArch: core: 10, cta: 1 initialized @(10349,0)
GPGPU-Sim uArch: Shader 0 finished CTA #0 (10353,0), 5 CTAs running
GPGPU-Sim uArch: core:  0, cta: 0 initialized @(10354,0)
GPGPU-Sim PTX: 4700000 instructions simulated : ctaid=(0,189,0) tid=(3,15,0)
GPGPU-Sim uArch: Shader 7 finished CTA #1 (10404,0), 5 CTAs running
GPGPU-Sim uArch: core:  7, cta: 1 initialized @(10405,0)
GPGPU-Sim uArch: Shader 4 finished CTA #2 (10490,0), 5 CTAs running
GPGPU-Sim uArch: core:  4, cta: 2 initialized @(10491,0)
GPGPU-Sim uArch: Shader 2 finished CTA #1 (10493,0), 5 CTAs running
GPGPU-Sim uArch: core:  2, cta: 1 initialized @(10494,0)
GPGPU-Sim uArch: cycles simulated: 10500  inst.: 4620598 (ipc=440.1) sim_rate=85566 (inst/sec) elapsed = 0:0:00:54 / Fri Feb  1 10:05:03 2019
GPGPU-Sim PTX: 4800000 instructions simulated : ctaid=(0,129,0) tid=(9,15,0)
GPGPU-Sim uArch: Shader 11 finished CTA #0 (10600,0), 5 CTAs running
GPGPU-Sim uArch: core: 11, cta: 0 initialized @(10601,0)
GPGPU-Sim uArch: Shader 12 finished CTA #1 (10602,0), 5 CTAs running
GPGPU-Sim uArch: core: 12, cta: 1 initialized @(10603,0)
GPGPU-Sim uArch: Shader 13 finished CTA #1 (10610,0), 5 CTAs running
GPGPU-Sim uArch: core: 13, cta: 1 initialized @(10611,0)
GPGPU-Sim uArch: Shader 8 finished CTA #1 (10620,0), 5 CTAs running
GPGPU-Sim uArch: core:  8, cta: 1 initialized @(10621,0)
GPGPU-Sim uArch: Shader 5 finished CTA #1 (10640,0), 5 CTAs running
GPGPU-Sim uArch: core:  5, cta: 1 initialized @(10641,0)
GPGPU-Sim PTX: 4900000 instructions simulated : ctaid=(0,137,0) tid=(13,11,0)
GPGPU-Sim uArch: Shader 0 finished CTA #1 (10839,0), 5 CTAs running
GPGPU-Sim uArch: core:  0, cta: 1 initialized @(10840,0)
GPGPU-Sim uArch: Shader 14 finished CTA #1 (10870,0), 5 CTAs running
GPGPU-Sim uArch: core: 14, cta: 1 initialized @(10871,0)
GPGPU-Sim uArch: Shader 3 finished CTA #2 (10875,0), 5 CTAs running
GPGPU-Sim uArch: core:  3, cta: 2 initialized @(10876,0)
GPGPU-Sim PTX: 5000000 instructions simulated : ctaid=(0,145,0) tid=(13,0,0)
GPGPU-Sim uArch: Shader 9 finished CTA #2 (10910,0), 5 CTAs running
GPGPU-Sim uArch: core:  9, cta: 2 initialized @(10911,0)
GPGPU-Sim uArch: Shader 1 finished CTA #2 (10917,0), 5 CTAs running
GPGPU-Sim uArch: core:  1, cta: 2 initialized @(10918,0)
GPGPU-Sim uArch: cycles simulated: 11000  inst.: 4895736 (ipc=445.1) sim_rate=85890 (inst/sec) elapsed = 0:0:00:57 / Fri Feb  1 10:05:06 2019
GPGPU-Sim uArch: Shader 14 finished CTA #2 (11070,0), 5 CTAs running
GPGPU-Sim uArch: core: 14, cta: 2 initialized @(11071,0)
GPGPU-Sim PTX: 5100000 instructions simulated : ctaid=(0,209,0) tid=(1,12,0)
GPGPU-Sim uArch: Shader 7 finished CTA #2 (11113,0), 5 CTAs running
GPGPU-Sim uArch: Shader 13 finished CTA #2 (11113,0), 5 CTAs running
GPGPU-Sim uArch: core:  7, cta: 2 initialized @(11114,0)
GPGPU-Sim uArch: core: 13, cta: 2 initialized @(11114,0)
GPGPU-Sim uArch: Shader 0 finished CTA #2 (11115,0), 5 CTAs running
GPGPU-Sim uArch: core:  0, cta: 2 initialized @(11116,0)
GPGPU-Sim uArch: Shader 12 finished CTA #0 (11121,0), 5 CTAs running
GPGPU-Sim uArch: core: 12, cta: 0 initialized @(11122,0)
GPGPU-Sim uArch: Shader 8 finished CTA #2 (11156,0), 5 CTAs running
GPGPU-Sim uArch: core:  8, cta: 2 initialized @(11157,0)
GPGPU-Sim uArch: Shader 11 finished CTA #3 (11223,0), 5 CTAs running
GPGPU-Sim uArch: core: 11, cta: 3 initialized @(11224,0)
GPGPU-Sim uArch: Shader 5 finished CTA #2 (11239,0), 5 CTAs running
GPGPU-Sim uArch: core:  5, cta: 2 initialized @(11240,0)
GPGPU-Sim uArch: Shader 4 finished CTA #1 (11272,0), 5 CTAs running
GPGPU-Sim uArch: core:  4, cta: 1 initialized @(11273,0)
GPGPU-Sim PTX: 5200000 instructions simulated : ctaid=(0,162,0) tid=(7,0,0)
GPGPU-Sim uArch: Shader 10 finished CTA #2 (11287,0), 5 CTAs running
GPGPU-Sim uArch: core: 10, cta: 2 initialized @(11288,0)
GPGPU-Sim uArch: Shader 2 finished CTA #2 (11297,0), 5 CTAs running
GPGPU-Sim uArch: core:  2, cta: 2 initialized @(11298,0)
GPGPU-Sim PTX: 5300000 instructions simulated : ctaid=(0,200,0) tid=(13,6,0)
GPGPU-Sim uArch: Shader 6 finished CTA #2 (11466,0), 5 CTAs running
GPGPU-Sim uArch: core:  6, cta: 2 initialized @(11467,0)
GPGPU-Sim uArch: cycles simulated: 11500  inst.: 5167116 (ipc=449.3) sim_rate=86118 (inst/sec) elapsed = 0:0:01:00 / Fri Feb  1 10:05:09 2019
GPGPU-Sim uArch: Shader 14 finished CTA #3 (11534,0), 5 CTAs running
GPGPU-Sim uArch: core: 14, cta: 3 initialized @(11535,0)
GPGPU-Sim uArch: Shader 3 finished CTA #3 (11545,0), 5 CTAs running
GPGPU-Sim uArch: core:  3, cta: 3 initialized @(11546,0)
GPGPU-Sim uArch: Shader 11 finished CTA #4 (11586,0), 5 CTAs running
GPGPU-Sim uArch: core: 11, cta: 4 initialized @(11587,0)
GPGPU-Sim PTX: 5400000 instructions simulated : ctaid=(0,163,0) tid=(9,0,0)
GPGPU-Sim uArch: Shader 1 finished CTA #3 (11603,0), 5 CTAs running
GPGPU-Sim uArch: core:  1, cta: 3 initialized @(11604,0)
GPGPU-Sim uArch: Shader 8 finished CTA #3 (11609,0), 5 CTAs running
GPGPU-Sim uArch: Shader 9 finished CTA #3 (11609,0), 5 CTAs running
GPGPU-Sim uArch: core:  8, cta: 3 initialized @(11610,0)
GPGPU-Sim uArch: core:  9, cta: 3 initialized @(11610,0)
GPGPU-Sim uArch: Shader 7 finished CTA #3 (11701,0), 5 CTAs running
GPGPU-Sim uArch: core:  7, cta: 3 initialized @(11702,0)
GPGPU-Sim uArch: Shader 2 finished CTA #3 (11717,0), 5 CTAs running
GPGPU-Sim uArch: core:  2, cta: 3 initialized @(11718,0)
GPGPU-Sim uArch: Shader 0 finished CTA #3 (11746,0), 5 CTAs running
GPGPU-Sim uArch: core:  0, cta: 3 initialized @(11747,0)
GPGPU-Sim PTX: 5500000 instructions simulated : ctaid=(0,174,0) tid=(5,7,0)
GPGPU-Sim uArch: Shader 6 finished CTA #3 (11850,0), 5 CTAs running
GPGPU-Sim uArch: core:  6, cta: 3 initialized @(11851,0)
GPGPU-Sim uArch: Shader 13 finished CTA #3 (11884,0), 5 CTAs running
GPGPU-Sim uArch: core: 13, cta: 3 initialized @(11885,0)
GPGPU-Sim uArch: Shader 5 finished CTA #3 (11897,0), 5 CTAs running
GPGPU-Sim uArch: core:  5, cta: 3 initialized @(11898,0)
GPGPU-Sim uArch: Shader 4 finished CTA #3 (11900,0), 5 CTAs running
GPGPU-Sim uArch: core:  4, cta: 3 initialized @(11901,0)
GPGPU-Sim uArch: Shader 9 finished CTA #4 (11960,0), 5 CTAs running
GPGPU-Sim uArch: core:  9, cta: 4 initialized @(11961,0)
GPGPU-Sim uArch: Shader 12 finished CTA #3 (11992,0), 5 CTAs running
GPGPU-Sim uArch: core: 12, cta: 3 initialized @(11993,0)
GPGPU-Sim uArch: cycles simulated: 12000  inst.: 5400508 (ipc=450.0) sim_rate=85722 (inst/sec) elapsed = 0:0:01:03 / Fri Feb  1 10:05:12 2019
GPGPU-Sim uArch: Shader 3 finished CTA #4 (12011,0), 5 CTAs running
GPGPU-Sim uArch: core:  3, cta: 4 initialized @(12012,0)
GPGPU-Sim uArch: Shader 5 finished CTA #4 (12024,0), 5 CTAs running
GPGPU-Sim uArch: core:  5, cta: 4 initialized @(12025,0)
GPGPU-Sim PTX: 5600000 instructions simulated : ctaid=(0,235,0) tid=(1,13,0)
GPGPU-Sim uArch: Shader 7 finished CTA #4 (12078,0), 5 CTAs running
GPGPU-Sim uArch: core:  7, cta: 4 initialized @(12079,0)
GPGPU-Sim uArch: Shader 6 finished CTA #4 (12192,0), 5 CTAs running
GPGPU-Sim uArch: core:  6, cta: 4 initialized @(12193,0)
GPGPU-Sim uArch: Shader 14 finished CTA #4 (12199,0), 5 CTAs running
GPGPU-Sim uArch: core: 14, cta: 4 initialized @(12200,0)
GPGPU-Sim PTX: 5700000 instructions simulated : ctaid=(0,193,0) tid=(13,6,0)
GPGPU-Sim uArch: Shader 2 finished CTA #4 (12300,0), 5 CTAs running
GPGPU-Sim uArch: core:  2, cta: 4 initialized @(12301,0)
GPGPU-Sim uArch: Shader 13 finished CTA #4 (12312,0), 5 CTAs running
GPGPU-Sim uArch: core: 13, cta: 4 initialized @(12313,0)
GPGPU-Sim uArch: Shader 12 finished CTA #4 (12390,0), 5 CTAs running
GPGPU-Sim uArch: core: 12, cta: 4 initialized @(12391,0)
GPGPU-Sim uArch: Shader 1 finished CTA #4 (12398,0), 5 CTAs running
GPGPU-Sim uArch: core:  1, cta: 4 initialized @(12399,0)
GPGPU-Sim PTX: 5800000 instructions simulated : ctaid=(0,187,0) tid=(7,3,0)
GPGPU-Sim uArch: Shader 4 finished CTA #4 (12481,0), 5 CTAs running
GPGPU-Sim uArch: core:  4, cta: 4 initialized @(12482,0)
GPGPU-Sim uArch: Shader 8 finished CTA #4 (12482,0), 5 CTAs running
GPGPU-Sim uArch: core:  8, cta: 4 initialized @(12483,0)
GPGPU-Sim uArch: Shader 3 finished CTA #5 (12494,0), 5 CTAs running
GPGPU-Sim uArch: core:  3, cta: 5 initialized @(12495,0)
GPGPU-Sim uArch: cycles simulated: 12500  inst.: 5632028 (ipc=450.6) sim_rate=85333 (inst/sec) elapsed = 0:0:01:06 / Fri Feb  1 10:05:15 2019
GPGPU-Sim uArch: Shader 0 finished CTA #4 (12513,0), 5 CTAs running
GPGPU-Sim uArch: core:  0, cta: 4 initialized @(12514,0)
GPGPU-Sim uArch: Shader 10 finished CTA #3 (12525,0), 5 CTAs running
GPGPU-Sim uArch: core: 10, cta: 3 initialized @(12526,0)
GPGPU-Sim PTX: 5900000 instructions simulated : ctaid=(0,234,0) tid=(7,2,0)
GPGPU-Sim uArch: Shader 14 finished CTA #5 (12655,0), 5 CTAs running
GPGPU-Sim uArch: core: 14, cta: 5 initialized @(12656,0)
GPGPU-Sim uArch: Shader 11 finished CTA #5 (12733,0), 5 CTAs running
GPGPU-Sim uArch: core: 11, cta: 5 initialized @(12734,0)
GPGPU-Sim uArch: Shader 7 finished CTA #5 (12749,0), 5 CTAs running
GPGPU-Sim uArch: core:  7, cta: 5 initialized @(12750,0)
GPGPU-Sim uArch: Shader 13 finished CTA #5 (12770,0), 5 CTAs running
GPGPU-Sim uArch: core: 13, cta: 5 initialized @(12771,0)
GPGPU-Sim PTX: 6000000 instructions simulated : ctaid=(0,196,0) tid=(11,7,0)
GPGPU-Sim uArch: Shader 9 finished CTA #5 (12878,0), 5 CTAs running
GPGPU-Sim uArch: core:  9, cta: 5 initialized @(12879,0)
GPGPU-Sim uArch: Shader 1 finished CTA #5 (12948,0), 5 CTAs running
GPGPU-Sim uArch: core:  1, cta: 5 initialized @(12949,0)
GPGPU-Sim PTX: 6100000 instructions simulated : ctaid=(0,257,0) tid=(7,2,0)
GPGPU-Sim uArch: Shader 2 finished CTA #5 (12975,0), 5 CTAs running
GPGPU-Sim uArch: core:  2, cta: 5 initialized @(12976,0)
GPGPU-Sim uArch: Shader 4 finished CTA #5 (12978,0), 5 CTAs running
GPGPU-Sim uArch: core:  4, cta: 5 initialized @(12979,0)
GPGPU-Sim uArch: cycles simulated: 13000  inst.: 5922358 (ipc=455.6) sim_rate=85831 (inst/sec) elapsed = 0:0:01:09 / Fri Feb  1 10:05:18 2019
GPGPU-Sim uArch: Shader 10 finished CTA #4 (13034,0), 5 CTAs running
GPGPU-Sim uArch: core: 10, cta: 4 initialized @(13035,0)
GPGPU-Sim uArch: Shader 5 finished CTA #5 (13039,0), 5 CTAs running
GPGPU-Sim uArch: core:  5, cta: 5 initialized @(13040,0)
GPGPU-Sim uArch: Shader 6 finished CTA #5 (13100,0), 5 CTAs running
GPGPU-Sim uArch: core:  6, cta: 5 initialized @(13101,0)
GPGPU-Sim PTX: 6200000 instructions simulated : ctaid=(0,222,0) tid=(9,11,0)
GPGPU-Sim uArch: Shader 12 finished CTA #5 (13167,0), 5 CTAs running
GPGPU-Sim uArch: core: 12, cta: 5 initialized @(13168,0)
GPGPU-Sim PTX: 6300000 instructions simulated : ctaid=(0,216,0) tid=(7,6,0)
GPGPU-Sim uArch: Shader 10 finished CTA #5 (13386,0), 5 CTAs running
GPGPU-Sim uArch: core: 10, cta: 5 initialized @(13387,0)
GPGPU-Sim uArch: Shader 8 finished CTA #5 (13393,0), 5 CTAs running
GPGPU-Sim uArch: core:  8, cta: 5 initialized @(13394,0)
GPGPU-Sim PTX: 6400000 instructions simulated : ctaid=(0,222,0) tid=(1,0,0)
GPGPU-Sim uArch: cycles simulated: 13500  inst.: 6234258 (ipc=461.8) sim_rate=86586 (inst/sec) elapsed = 0:0:01:12 / Fri Feb  1 10:05:21 2019
GPGPU-Sim uArch: Shader 0 finished CTA #5 (13566,0), 5 CTAs running
GPGPU-Sim uArch: core:  0, cta: 5 initialized @(13567,0)
GPGPU-Sim PTX: 6500000 instructions simulated : ctaid=(0,193,0) tid=(5,11,0)
GPGPU-Sim PTX: 6600000 instructions simulated : ctaid=(0,237,0) tid=(3,0,0)
GPGPU-Sim uArch: Shader 9 finished CTA #0 (13794,0), 5 CTAs running
GPGPU-Sim uArch: core:  9, cta: 0 initialized @(13795,0)
GPGPU-Sim uArch: Shader 11 finished CTA #2 (13802,0), 5 CTAs running
GPGPU-Sim uArch: core: 11, cta: 2 initialized @(13803,0)
GPGPU-Sim uArch: Shader 14 finished CTA #0 (13835,0), 5 CTAs running
GPGPU-Sim uArch: core: 14, cta: 0 initialized @(13836,0)
GPGPU-Sim PTX: 6700000 instructions simulated : ctaid=(0,194,0) tid=(15,11,0)
GPGPU-Sim uArch: cycles simulated: 14000  inst.: 6538222 (ipc=467.0) sim_rate=86029 (inst/sec) elapsed = 0:0:01:16 / Fri Feb  1 10:05:25 2019
GPGPU-Sim uArch: Shader 2 finished CTA #0 (14011,0), 5 CTAs running
GPGPU-Sim uArch: core:  2, cta: 0 initialized @(14012,0)
GPGPU-Sim uArch: Shader 1 finished CTA #0 (14027,0), 5 CTAs running
GPGPU-Sim uArch: core:  1, cta: 0 initialized @(14028,0)
GPGPU-Sim uArch: Shader 3 finished CTA #1 (14055,0), 5 CTAs running
GPGPU-Sim uArch: core:  3, cta: 1 initialized @(14056,0)
GPGPU-Sim PTX: 6800000 instructions simulated : ctaid=(0,239,0) tid=(5,6,0)
GPGPU-Sim uArch: Shader 4 finished CTA #0 (14174,0), 5 CTAs running
GPGPU-Sim uArch: core:  4, cta: 0 initialized @(14175,0)
GPGPU-Sim uArch: Shader 7 finished CTA #0 (14187,0), 5 CTAs running
GPGPU-Sim uArch: core:  7, cta: 0 initialized @(14188,0)
GPGPU-Sim uArch: Shader 5 finished CTA #0 (14193,0), 5 CTAs running
GPGPU-Sim uArch: core:  5, cta: 0 initialized @(14194,0)
GPGPU-Sim uArch: Shader 6 finished CTA #0 (14199,0), 5 CTAs running
GPGPU-Sim uArch: core:  6, cta: 0 initialized @(14200,0)
GPGPU-Sim PTX: 6900000 instructions simulated : ctaid=(0,231,0) tid=(15,10,0)
GPGPU-Sim uArch: Shader 3 finished CTA #0 (14289,0), 5 CTAs running
GPGPU-Sim uArch: core:  3, cta: 0 initialized @(14290,0)
GPGPU-Sim uArch: Shader 9 finished CTA #1 (14298,0), 5 CTAs running
GPGPU-Sim uArch: core:  9, cta: 1 initialized @(14299,0)
GPGPU-Sim uArch: Shader 13 finished CTA #0 (14310,0), 5 CTAs running
GPGPU-Sim uArch: core: 13, cta: 0 initialized @(14311,0)
GPGPU-Sim uArch: Shader 10 finished CTA #0 (14321,0), 5 CTAs running
GPGPU-Sim uArch: core: 10, cta: 0 initialized @(14322,0)
GPGPU-Sim uArch: Shader 8 finished CTA #0 (14331,0), 5 CTAs running
GPGPU-Sim uArch: core:  8, cta: 0 initialized @(14332,0)
GPGPU-Sim uArch: Shader 12 finished CTA #2 (14375,0), 5 CTAs running
GPGPU-Sim uArch: core: 12, cta: 2 initialized @(14376,0)
GPGPU-Sim PTX: 7000000 instructions simulated : ctaid=(0,254,0) tid=(5,13,0)
GPGPU-Sim uArch: Shader 0 finished CTA #0 (14473,0), 5 CTAs running
GPGPU-Sim uArch: core:  0, cta: 0 initialized @(14474,0)
GPGPU-Sim uArch: cycles simulated: 14500  inst.: 6847790 (ipc=472.3) sim_rate=86680 (inst/sec) elapsed = 0:0:01:19 / Fri Feb  1 10:05:28 2019
GPGPU-Sim PTX: 7100000 instructions simulated : ctaid=(0,229,0) tid=(13,2,0)
GPGPU-Sim uArch: Shader 6 finished CTA #1 (14528,0), 5 CTAs running
GPGPU-Sim uArch: core:  6, cta: 1 initialized @(14529,0)
GPGPU-Sim uArch: Shader 14 finished CTA #1 (14609,0), 5 CTAs running
GPGPU-Sim uArch: core: 14, cta: 1 initialized @(14610,0)
GPGPU-Sim uArch: Shader 11 finished CTA #1 (14646,0), 5 CTAs running
GPGPU-Sim uArch: core: 11, cta: 1 initialized @(14647,0)
GPGPU-Sim PTX: 7200000 instructions simulated : ctaid=(0,219,0) tid=(15,14,0)
GPGPU-Sim uArch: Shader 2 finished CTA #1 (14695,0), 5 CTAs running
GPGPU-Sim uArch: core:  2, cta: 1 initialized @(14696,0)
GPGPU-Sim uArch: Shader 4 finished CTA #2 (14761,0), 5 CTAs running
GPGPU-Sim uArch: core:  4, cta: 2 initialized @(14762,0)
GPGPU-Sim PTX: 7300000 instructions simulated : ctaid=(0,255,0) tid=(15,8,0)
GPGPU-Sim uArch: Shader 5 finished CTA #1 (14897,0), 5 CTAs running
GPGPU-Sim uArch: core:  5, cta: 1 initialized @(14898,0)
GPGPU-Sim uArch: Shader 1 finished CTA #1 (14911,0), 5 CTAs running
GPGPU-Sim uArch: core:  1, cta: 1 initialized @(14912,0)
GPGPU-Sim uArch: Shader 11 finished CTA #0 (14993,0), 5 CTAs running
GPGPU-Sim uArch: core: 11, cta: 0 initialized @(14994,0)
GPGPU-Sim uArch: cycles simulated: 15000  inst.: 7153552 (ipc=476.9) sim_rate=87238 (inst/sec) elapsed = 0:0:01:22 / Fri Feb  1 10:05:31 2019
GPGPU-Sim PTX: 7400000 instructions simulated : ctaid=(0,227,0) tid=(5,6,0)
GPGPU-Sim uArch: Shader 12 finished CTA #1 (15052,0), 5 CTAs running
GPGPU-Sim uArch: core: 12, cta: 1 initialized @(15053,0)
GPGPU-Sim uArch: Shader 7 finished CTA #1 (15070,0), 5 CTAs running
GPGPU-Sim uArch: core:  7, cta: 1 initialized @(15071,0)
GPGPU-Sim uArch: Shader 0 finished CTA #1 (15087,0), 5 CTAs running
GPGPU-Sim uArch: core:  0, cta: 1 initialized @(15088,0)
GPGPU-Sim uArch: Shader 3 finished CTA #2 (15116,0), 5 CTAs running
GPGPU-Sim uArch: Shader 5 finished CTA #2 (15116,0), 5 CTAs running
GPGPU-Sim uArch: core:  3, cta: 2 initialized @(15117,0)
GPGPU-Sim uArch: core:  5, cta: 2 initialized @(15117,0)
GPGPU-Sim PTX: 7500000 instructions simulated : ctaid=(0,249,0) tid=(13,1,0)
GPGPU-Sim uArch: Shader 8 finished CTA #1 (15163,0), 5 CTAs running
GPGPU-Sim uArch: core:  8, cta: 1 initialized @(15164,0)
GPGPU-Sim uArch: Shader 13 finished CTA #1 (15174,0), 5 CTAs running
GPGPU-Sim uArch: core: 13, cta: 1 initialized @(15175,0)
GPGPU-Sim uArch: Shader 10 finished CTA #1 (15248,0), 5 CTAs running
GPGPU-Sim uArch: core: 10, cta: 1 initialized @(15249,0)
GPGPU-Sim uArch: Shader 4 finished CTA #1 (15300,0), 5 CTAs running
GPGPU-Sim uArch: core:  4, cta: 1 initialized @(15301,0)
GPGPU-Sim uArch: Shader 14 finished CTA #2 (15307,0), 5 CTAs running
GPGPU-Sim uArch: core: 14, cta: 2 initialized @(15308,0)
GPGPU-Sim PTX: 7600000 instructions simulated : ctaid=(0,235,0) tid=(13,8,0)
GPGPU-Sim uArch: Shader 9 finished CTA #2 (15313,0), 5 CTAs running
GPGPU-Sim uArch: core:  9, cta: 2 initialized @(15314,0)
GPGPU-Sim uArch: Shader 1 finished CTA #2 (15320,0), 5 CTAs running
GPGPU-Sim uArch: core:  1, cta: 2 initialized @(15321,0)
GPGPU-Sim uArch: Shader 2 finished CTA #2 (15360,0), 5 CTAs running
GPGPU-Sim uArch: core:  2, cta: 2 initialized @(15361,0)
GPGPU-Sim uArch: Shader 6 finished CTA #2 (15435,0), 5 CTAs running
GPGPU-Sim uArch: core:  6, cta: 2 initialized @(15436,0)
GPGPU-Sim uArch: Shader 13 finished CTA #2 (15470,0), 5 CTAs running
GPGPU-Sim uArch: core: 13, cta: 2 initialized @(15471,0)
GPGPU-Sim PTX: 7700000 instructions simulated : ctaid=(0,297,0) tid=(9,2,0)
GPGPU-Sim uArch: cycles simulated: 15500  inst.: 7462620 (ipc=481.5) sim_rate=86774 (inst/sec) elapsed = 0:0:01:26 / Fri Feb  1 10:05:35 2019
GPGPU-Sim uArch: Shader 9 finished CTA #3 (15540,0), 5 CTAs running
GPGPU-Sim uArch: core:  9, cta: 3 initialized @(15541,0)
GPGPU-Sim uArch: Shader 7 finished CTA #2 (15607,0), 5 CTAs running
GPGPU-Sim uArch: core:  7, cta: 2 initialized @(15608,0)
GPGPU-Sim PTX: 7800000 instructions simulated : ctaid=(0,298,0) tid=(11,6,0)
GPGPU-Sim uArch: Shader 8 finished CTA #2 (15633,0), 5 CTAs running
GPGPU-Sim uArch: core:  8, cta: 2 initialized @(15634,0)
GPGPU-Sim uArch: Shader 3 finished CTA #3 (15647,0), 5 CTAs running
GPGPU-Sim uArch: core:  3, cta: 3 initialized @(15648,0)
GPGPU-Sim uArch: Shader 0 finished CTA #2 (15656,0), 5 CTAs running
GPGPU-Sim uArch: core:  0, cta: 2 initialized @(15657,0)
GPGPU-Sim uArch: Shader 12 finished CTA #0 (15658,0), 5 CTAs running
GPGPU-Sim uArch: core: 12, cta: 0 initialized @(15659,0)
GPGPU-Sim uArch: Shader 10 finished CTA #2 (15675,0), 5 CTAs running
GPGPU-Sim uArch: core: 10, cta: 2 initialized @(15676,0)
GPGPU-Sim PTX: 7900000 instructions simulated : ctaid=(0,264,0) tid=(11,12,0)
GPGPU-Sim uArch: Shader 14 finished CTA #3 (15858,0), 5 CTAs running
GPGPU-Sim uArch: core: 14, cta: 3 initialized @(15859,0)
GPGPU-Sim uArch: Shader 6 finished CTA #3 (15864,0), 5 CTAs running
GPGPU-Sim uArch: core:  6, cta: 3 initialized @(15865,0)
GPGPU-Sim uArch: Shader 4 finished CTA #3 (15908,0), 5 CTAs running
GPGPU-Sim uArch: core:  4, cta: 3 initialized @(15909,0)
GPGPU-Sim PTX: 8000000 instructions simulated : ctaid=(0,270,0) tid=(11,9,0)
GPGPU-Sim uArch: Shader 11 finished CTA #3 (15956,0), 5 CTAs running
GPGPU-Sim uArch: core: 11, cta: 3 initialized @(15957,0)
GPGPU-Sim uArch: Shader 1 finished CTA #3 (15960,0), 5 CTAs running
GPGPU-Sim uArch: core:  1, cta: 3 initialized @(15961,0)
GPGPU-Sim uArch: cycles simulated: 16000  inst.: 7773702 (ipc=485.9) sim_rate=87344 (inst/sec) elapsed = 0:0:01:29 / Fri Feb  1 10:05:38 2019
GPGPU-Sim uArch: Shader 5 finished CTA #3 (16072,0), 5 CTAs running
GPGPU-Sim uArch: core:  5, cta: 3 initialized @(16073,0)
GPGPU-Sim uArch: Shader 2 finished CTA #3 (16094,0), 5 CTAs running
GPGPU-Sim uArch: core:  2, cta: 3 initialized @(16095,0)
GPGPU-Sim PTX: 8100000 instructions simulated : ctaid=(0,318,0) tid=(5,3,0)
GPGPU-Sim uArch: Shader 7 finished CTA #3 (16227,0), 5 CTAs running
GPGPU-Sim uArch: core:  7, cta: 3 initialized @(16228,0)
GPGPU-Sim uArch: Shader 0 finished CTA #3 (16265,0), 5 CTAs running
GPGPU-Sim uArch: core:  0, cta: 3 initialized @(16266,0)
GPGPU-Sim PTX: 8200000 instructions simulated : ctaid=(0,272,0) tid=(3,10,0)
GPGPU-Sim uArch: Shader 11 finished CTA #4 (16326,0), 5 CTAs running
GPGPU-Sim uArch: core: 11, cta: 4 initialized @(16327,0)
GPGPU-Sim uArch: Shader 5 finished CTA #4 (16344,0), 5 CTAs running
GPGPU-Sim uArch: core:  5, cta: 4 initialized @(16345,0)
GPGPU-Sim uArch: Shader 14 finished CTA #4 (16355,0), 5 CTAs running
GPGPU-Sim uArch: core: 14, cta: 4 initialized @(16356,0)
GPGPU-Sim uArch: Shader 2 finished CTA #4 (16394,0), 5 CTAs running
GPGPU-Sim uArch: core:  2, cta: 4 initialized @(16395,0)
GPGPU-Sim uArch: Shader 9 finished CTA #4 (16449,0), 5 CTAs running
GPGPU-Sim uArch: Shader 12 finished CTA #3 (16449,0), 5 CTAs running
GPGPU-Sim uArch: core:  9, cta: 4 initialized @(16450,0)
GPGPU-Sim uArch: core: 12, cta: 3 initialized @(16450,0)
GPGPU-Sim PTX: 8300000 instructions simulated : ctaid=(0,257,0) tid=(15,9,0)
GPGPU-Sim uArch: Shader 13 finished CTA #3 (16458,0), 5 CTAs running
GPGPU-Sim uArch: core: 13, cta: 3 initialized @(16459,0)
GPGPU-Sim uArch: cycles simulated: 16500  inst.: 8051214 (ipc=488.0) sim_rate=86572 (inst/sec) elapsed = 0:0:01:33 / Fri Feb  1 10:05:42 2019
GPGPU-Sim uArch: Shader 3 finished CTA #4 (16574,0), 5 CTAs running
GPGPU-Sim uArch: core:  3, cta: 4 initialized @(16575,0)
GPGPU-Sim uArch: Shader 12 finished CTA #4 (16599,0), 5 CTAs running
GPGPU-Sim uArch: core: 12, cta: 4 initialized @(16600,0)
GPGPU-Sim uArch: Shader 1 finished CTA #4 (16603,0), 5 CTAs running
GPGPU-Sim uArch: core:  1, cta: 4 initialized @(16604,0)
GPGPU-Sim PTX: 8400000 instructions simulated : ctaid=(0,286,0) tid=(11,4,0)
GPGPU-Sim uArch: Shader 8 finished CTA #3 (16632,0), 5 CTAs running
GPGPU-Sim uArch: core:  8, cta: 3 initialized @(16633,0)
GPGPU-Sim uArch: Shader 6 finished CTA #4 (16633,0), 5 CTAs running
GPGPU-Sim uArch: core:  6, cta: 4 initialized @(16634,0)
GPGPU-Sim uArch: Shader 7 finished CTA #4 (16662,0), 5 CTAs running
GPGPU-Sim uArch: core:  7, cta: 4 initialized @(16663,0)
GPGPU-Sim uArch: Shader 10 finished CTA #3 (16681,0), 5 CTAs running
GPGPU-Sim uArch: core: 10, cta: 3 initialized @(16682,0)
GPGPU-Sim PTX: 8500000 instructions simulated : ctaid=(0,272,0) tid=(9,9,0)
GPGPU-Sim uArch: Shader 13 finished CTA #4 (16855,0), 5 CTAs running
GPGPU-Sim uArch: core: 13, cta: 4 initialized @(16856,0)
GPGPU-Sim uArch: Shader 8 finished CTA #4 (16912,0), 5 CTAs running
GPGPU-Sim uArch: core:  8, cta: 4 initialized @(16913,0)
GPGPU-Sim PTX: 8600000 instructions simulated : ctaid=(0,264,0) tid=(7,5,0)
GPGPU-Sim uArch: Shader 4 finished CTA #4 (16932,0), 5 CTAs running
GPGPU-Sim uArch: core:  4, cta: 4 initialized @(16933,0)
GPGPU-Sim uArch: cycles simulated: 17000  inst.: 8356804 (ipc=491.6) sim_rate=87050 (inst/sec) elapsed = 0:0:01:36 / Fri Feb  1 10:05:45 2019
GPGPU-Sim uArch: Shader 9 finished CTA #5 (17051,0), 5 CTAs running
GPGPU-Sim uArch: core:  9, cta: 5 initialized @(17052,0)
GPGPU-Sim uArch: Shader 3 finished CTA #5 (17063,0), 5 CTAs running
GPGPU-Sim uArch: Shader 14 finished CTA #5 (17063,0), 5 CTAs running
GPGPU-Sim uArch: core: 14, cta: 5 initialized @(17064,0)
GPGPU-Sim uArch: core:  3, cta: 5 initialized @(17064,0)
GPGPU-Sim PTX: 8700000 instructions simulated : ctaid=(0,280,0) tid=(9,6,0)
GPGPU-Sim uArch: Shader 0 finished CTA #4 (17103,0), 5 CTAs running
GPGPU-Sim uArch: core:  0, cta: 4 initialized @(17104,0)
GPGPU-Sim uArch: Shader 2 finished CTA #5 (17200,0), 5 CTAs running
GPGPU-Sim uArch: core:  2, cta: 5 initialized @(17201,0)
GPGPU-Sim uArch: Shader 5 finished CTA #5 (17225,0), 5 CTAs running
GPGPU-Sim uArch: core:  5, cta: 5 initialized @(17226,0)
GPGPU-Sim PTX: 8800000 instructions simulated : ctaid=(0,348,0) tid=(7,1,0)
GPGPU-Sim uArch: Shader 6 finished CTA #5 (17285,0), 5 CTAs running
GPGPU-Sim uArch: core:  6, cta: 5 initialized @(17286,0)
GPGPU-Sim uArch: Shader 11 finished CTA #5 (17307,0), 5 CTAs running
GPGPU-Sim uArch: core: 11, cta: 5 initialized @(17308,0)
GPGPU-Sim PTX: 8900000 instructions simulated : ctaid=(0,283,0) tid=(1,10,0)
GPGPU-Sim uArch: Shader 4 finished CTA #5 (17397,0), 5 CTAs running
GPGPU-Sim uArch: core:  4, cta: 5 initialized @(17398,0)
GPGPU-Sim uArch: Shader 7 finished CTA #5 (17398,0), 5 CTAs running
GPGPU-Sim uArch: core:  7, cta: 5 initialized @(17399,0)
GPGPU-Sim uArch: Shader 1 finished CTA #5 (17405,0), 5 CTAs running
GPGPU-Sim uArch: core:  1, cta: 5 initialized @(17406,0)
GPGPU-Sim uArch: cycles simulated: 17500  inst.: 8674182 (ipc=495.7) sim_rate=86741 (inst/sec) elapsed = 0:0:01:40 / Fri Feb  1 10:05:49 2019
GPGPU-Sim uArch: Shader 10 finished CTA #4 (17504,0), 5 CTAs running
GPGPU-Sim uArch: core: 10, cta: 4 initialized @(17505,0)
GPGPU-Sim PTX: 9000000 instructions simulated : ctaid=(0,330,0) tid=(11,10,0)
GPGPU-Sim uArch: Shader 10 finished CTA #5 (17566,0), 5 CTAs running
GPGPU-Sim uArch: core: 10, cta: 5 initialized @(17567,0)
GPGPU-Sim uArch: Shader 12 finished CTA #5 (17577,0), 5 CTAs running
GPGPU-Sim uArch: core: 12, cta: 5 initialized @(17578,0)
GPGPU-Sim uArch: Shader 0 finished CTA #5 (17595,0), 5 CTAs running
GPGPU-Sim uArch: core:  0, cta: 5 initialized @(17596,0)
GPGPU-Sim uArch: Shader 8 finished CTA #5 (17614,0), 5 CTAs running
GPGPU-Sim uArch: core:  8, cta: 5 initialized @(17615,0)
GPGPU-Sim PTX: 9100000 instructions simulated : ctaid=(0,356,0) tid=(11,3,0)
GPGPU-Sim uArch: Shader 9 finished CTA #0 (17748,0), 5 CTAs running
GPGPU-Sim uArch: core:  9, cta: 0 initialized @(17749,0)
GPGPU-Sim uArch: Shader 13 finished CTA #5 (17815,0), 5 CTAs running
GPGPU-Sim uArch: core: 13, cta: 5 initialized @(17816,0)
GPGPU-Sim PTX: 9200000 instructions simulated : ctaid=(0,294,0) tid=(1,8,0)
GPGPU-Sim uArch: Shader 11 finished CTA #2 (17856,0), 5 CTAs running
GPGPU-Sim uArch: core: 11, cta: 2 initialized @(17857,0)
GPGPU-Sim uArch: Shader 1 finished CTA #0 (17902,0), 5 CTAs running
GPGPU-Sim uArch: core:  1, cta: 0 initialized @(17903,0)
GPGPU-Sim PTX: 9300000 instructions simulated : ctaid=(0,291,0) tid=(9,13,0)
GPGPU-Sim uArch: cycles simulated: 18000  inst.: 8993392 (ipc=499.6) sim_rate=86474 (inst/sec) elapsed = 0:0:01:44 / Fri Feb  1 10:05:53 2019
GPGPU-Sim uArch: Shader 7 finished CTA #0 (18056,0), 5 CTAs running
GPGPU-Sim uArch: core:  7, cta: 0 initialized @(18057,0)
GPGPU-Sim uArch: Shader 14 finished CTA #0 (18088,0), 5 CTAs running
GPGPU-Sim uArch: core: 14, cta: 0 initialized @(18089,0)
GPGPU-Sim PTX: 9400000 instructions simulated : ctaid=(0,313,0) tid=(7,9,0)
GPGPU-Sim uArch: Shader 5 finished CTA #0 (18180,0), 5 CTAs running
GPGPU-Sim uArch: core:  5, cta: 0 initialized @(18181,0)
GPGPU-Sim uArch: Shader 6 finished CTA #0 (18202,0), 5 CTAs running
GPGPU-Sim uArch: core:  6, cta: 0 initialized @(18203,0)
GPGPU-Sim uArch: Shader 2 finished CTA #0 (18212,0), 5 CTAs running
GPGPU-Sim uArch: core:  2, cta: 0 initialized @(18213,0)
GPGPU-Sim uArch: Shader 3 finished CTA #1 (18261,0), 5 CTAs running
GPGPU-Sim uArch: core:  3, cta: 1 initialized @(18262,0)
GPGPU-Sim uArch: Shader 4 finished CTA #0 (18309,0), 5 CTAs running
GPGPU-Sim uArch: core:  4, cta: 0 initialized @(18310,0)
GPGPU-Sim PTX: 9500000 instructions simulated : ctaid=(0,301,0) tid=(15,11,0)
GPGPU-Sim uArch: Shader 9 finished CTA #1 (18415,0), 5 CTAs running
GPGPU-Sim uArch: core:  9, cta: 1 initialized @(18416,0)
GPGPU-Sim uArch: Shader 14 finished CTA #1 (18417,0), 5 CTAs running
GPGPU-Sim uArch: core: 14, cta: 1 initialized @(18418,0)
GPGPU-Sim PTX: 9600000 instructions simulated : ctaid=(0,366,0) tid=(11,0,0)
GPGPU-Sim uArch: cycles simulated: 18500  inst.: 9290186 (ipc=502.2) sim_rate=86824 (inst/sec) elapsed = 0:0:01:47 / Fri Feb  1 10:05:56 2019
GPGPU-Sim uArch: Shader 12 finished CTA #2 (18512,0), 5 CTAs running
GPGPU-Sim uArch: core: 12, cta: 2 initialized @(18513,0)
GPGPU-Sim PTX: 9700000 instructions simulated : ctaid=(0,338,0) tid=(11,4,0)
GPGPU-Sim uArch: Shader 10 finished CTA #0 (18663,0), 5 CTAs running
GPGPU-Sim uArch: core: 10, cta: 0 initialized @(18664,0)
GPGPU-Sim uArch: Shader 6 finished CTA #1 (18669,0), 5 CTAs running
GPGPU-Sim uArch: core:  6, cta: 1 initialized @(18670,0)
GPGPU-Sim uArch: Shader 3 finished CTA #0 (18685,0), 5 CTAs running
GPGPU-Sim uArch: core:  3, cta: 0 initialized @(18686,0)
GPGPU-Sim uArch: Shader 0 finished CTA #0 (18686,0), 5 CTAs running
GPGPU-Sim uArch: core:  0, cta: 0 initialized @(18687,0)
GPGPU-Sim uArch: Shader 4 finished CTA #2 (18693,0), 5 CTAs running
GPGPU-Sim uArch: core:  4, cta: 2 initialized @(18694,0)
GPGPU-Sim uArch: Shader 2 finished CTA #1 (18777,0), 5 CTAs running
GPGPU-Sim uArch: core:  2, cta: 1 initialized @(18778,0)
GPGPU-Sim uArch: Shader 8 finished CTA #0 (18796,0), 5 CTAs running
GPGPU-Sim uArch: core:  8, cta: 0 initialized @(18797,0)
GPGPU-Sim PTX: 9800000 instructions simulated : ctaid=(0,304,0) tid=(1,2,0)
GPGPU-Sim uArch: Shader 11 finished CTA #1 (18821,0), 5 CTAs running
GPGPU-Sim uArch: core: 11, cta: 1 initialized @(18822,0)
GPGPU-Sim uArch: Shader 13 finished CTA #0 (18896,0), 5 CTAs running
GPGPU-Sim uArch: core: 13, cta: 0 initialized @(18897,0)
GPGPU-Sim PTX: 9900000 instructions simulated : ctaid=(0,381,0) tid=(3,12,0)
GPGPU-Sim uArch: Shader 5 finished CTA #1 (18998,0), 5 CTAs running
GPGPU-Sim uArch: core:  5, cta: 1 initialized @(18999,0)
GPGPU-Sim uArch: cycles simulated: 19000  inst.: 9588084 (ipc=504.6) sim_rate=86379 (inst/sec) elapsed = 0:0:01:51 / Fri Feb  1 10:06:00 2019
GPGPU-Sim uArch: Shader 1 finished CTA #1 (19057,0), 5 CTAs running
GPGPU-Sim uArch: core:  1, cta: 1 initialized @(19058,0)
GPGPU-Sim PTX: 10000000 instructions simulated : ctaid=(0,302,0) tid=(13,9,0)
GPGPU-Sim uArch: Shader 9 finished CTA #2 (19158,0), 5 CTAs running
GPGPU-Sim uArch: core:  9, cta: 2 initialized @(19159,0)
GPGPU-Sim uArch: Shader 0 finished CTA #1 (19174,0), 5 CTAs running
GPGPU-Sim uArch: core:  0, cta: 1 initialized @(19175,0)
GPGPU-Sim uArch: Shader 12 finished CTA #1 (19186,0), 5 CTAs running
GPGPU-Sim uArch: core: 12, cta: 1 initialized @(19187,0)
GPGPU-Sim uArch: Shader 11 finished CTA #0 (19220,0), 5 CTAs running
GPGPU-Sim uArch: core: 11, cta: 0 initialized @(19221,0)
GPGPU-Sim uArch: Shader 7 finished CTA #1 (19221,0), 5 CTAs running
GPGPU-Sim uArch: Shader 8 finished CTA #1 (19221,0), 5 CTAs running
GPGPU-Sim uArch: core:  7, cta: 1 initialized @(19222,0)
GPGPU-Sim uArch: core:  8, cta: 1 initialized @(19222,0)
GPGPU-Sim PTX: 10100000 instructions simulated : ctaid=(0,364,0) tid=(15,5,0)
GPGPU-Sim uArch: Shader 2 finished CTA #2 (19313,0), 5 CTAs running
GPGPU-Sim uArch: core:  2, cta: 2 initialized @(19314,0)
GPGPU-Sim uArch: Shader 4 finished CTA #1 (19397,0), 5 CTAs running
GPGPU-Sim uArch: core:  4, cta: 1 initialized @(19398,0)
GPGPU-Sim uArch: Shader 14 finished CTA #2 (19420,0), 5 CTAs running
GPGPU-Sim uArch: core: 14, cta: 2 initialized @(19421,0)
GPGPU-Sim PTX: 10200000 instructions simulated : ctaid=(0,380,0) tid=(1,12,0)
GPGPU-Sim uArch: Shader 1 finished CTA #2 (19476,0), 5 CTAs running
GPGPU-Sim uArch: core:  1, cta: 2 initialized @(19477,0)
GPGPU-Sim uArch: Shader 3 finished CTA #2 (19489,0), 5 CTAs running
GPGPU-Sim uArch: core:  3, cta: 2 initialized @(19490,0)
GPGPU-Sim uArch: cycles simulated: 19500  inst.: 9886996 (ipc=507.0) sim_rate=86728 (inst/sec) elapsed = 0:0:01:54 / Fri Feb  1 10:06:03 2019
GPGPU-Sim uArch: Shader 5 finished CTA #2 (19500,0), 5 CTAs running
GPGPU-Sim uArch: core:  5, cta: 2 initialized @(19501,0)
[...]
gpgpu_stall_shd_mem[l_mem_ld][wb_rsrv_fail] = 0
gpu_reg_bank_conflict_stalls = 0
Warp Occupancy Distribution:
Stall:14829387	W0_Idle:71873	W0_Scoreboard:2144853	W1:0	W2:688128	W3:0	W4:0	W5:0	W6:0	W7:0	W8:0	W9:0	W10:0	W11:0	W12:0	W13:0	W14:0	W15:0	W16:737304	W17:0	W18:0	W19:0	W20:0	W21:0	W22:0	W23:0	W24:0	W25:0	W26:0	W27:0	W28:0	W29:0	W30:32768	W31:0	W32:5406719
traffic_breakdown_coretomem[CONST_ACC_R] = 120 {8:15,}
traffic_breakdown_coretomem[GLOBAL_ACC_R] = 3456544 {8:432068,}
traffic_breakdown_coretomem[GLOBAL_ACC_W] = 20185360 {40:81920,72:49152,136:98306,}
traffic_breakdown_coretomem[INST_ACC_R] = 1328 {8:166,}
traffic_breakdown_memtocore[CONST_ACC_R] = 1080 {72:15,}
traffic_breakdown_memtocore[GLOBAL_ACC_R] = 39256576 {40:151307,72:77800,136:202961,}
traffic_breakdown_memtocore[GLOBAL_ACC_W] = 1835024 {8:229378,}
traffic_breakdown_memtocore[INST_ACC_R] = 22576 {136:166,}
maxmrqlatency = 644 
maxdqlatency = 0 
maxmflatency = 2256 
averagemflatency = 368 
max_icnt2mem_latency = 3896 
max_icnt2sh_latency = 797903 
mrq_lat_table:69970 	3655 	6528 	8671 	37425 	48885 	35859 	8090 	231 	11 	0 	0 	0 	0 	0 	0 	0 	0 	0 	0 	0 	0 	0 	0 	0 	0 	0 	0 	0 	0 	0 	0 	
dq_lat_table:0 	0 	0 	0 	0 	0 	0 	0 	0 	0 	0 	0 	0 	0 	0 	0 	0 	0 	0 	0 	0 	0 	0 	0 	0 	0 	0 	0 	0 	0 	0 	0 	
mf_lat_table:0 	0 	0 	0 	0 	0 	0 	264951 	243860 	148745 	3721 	184 	0 	0 	0 	0 	0 	0 	0 	0 	0 	0 	0 	0 	0 	0 	0 	0 	0 	0 	0 	0 	
icnt2mem_lat_table:0 	0 	0 	76006 	98999 	151083 	91366 	30173 	197705 	15577 	696 	22 	0 	0 	0 	0 	0 	0 	0 	0 	0 	0 	0 	0 	
icnt2sh_lat_table:0 	0 	0 	167758 	208178 	53815 	2330 	2 	0 	0 	0 	0 	2125 	3755 	8156 	15929 	32406 	47944 	58050 	61013 	0 	0 	0 	0 	
mf_lat_pw_table:0 	0 	0 	0 	0 	0 	0 	189 	1376 	20 	7 	0 	0 	0 	0 	0 	0 	0 	0 	0 	0 	0 	0 	0 	0 	0 	0 	0 	0 	0 	0 	0 	
maximum concurrent accesses to same row:
dram[0]:        32        32        32        32        32        32        32        32        32        32        32        32        32        32        32        32 
dram[1]:        32        32        32        32        32        32        32        32        32        32        32        32        32        32        32        32 
dram[2]:        32        32        32        32        32        32        32        32        32        32        32        32        32        32        32        32 
dram[3]:        32        32        32        32        32        32        32        32        32        32        32        32        32        32        32        32 
dram[4]:        32        32        32        32        32        32        32        32        32        32        32        32        32        32        32        32 
dram[5]:        32        32        32        32        32        32        32        32        32        32        32        32        32        32        32        32 
maximum service time to same row:
dram[0]:     44323     42635     43077     41429     43229     42645     41604     42091     43716     42452     45619     41569     45233     42161     45493     42045 
dram[1]:     44563     42284     42873     42432     41831     40666     42599     43331     43277     41747     42423     41854     45219     45143     45881     43200 
dram[2]:     43047     44786     41857     43136     42163     41335     40629     43265     39932     44392     40086     44222     41302     43509     42562     42767 
dram[3]:     34319     42262     43924     43752     32152     40331     45912     43358     33933     43166     43267     41764     33794     45252     39225     42321 
dram[4]:     40902     44015     42765     41923     41694     44302     41019     44057     42796     43726     41040     45491     42057     44552     41226     45327 
dram[5]:     43085     41177     45351     41531     46271     41969     43765     41194     45433     44187     41451     42233     44302     44391     41717     42250 
average row accesses per activate:
dram[0]:  2.475193  2.531073  2.480620  2.522522  2.453362  2.475356  2.510293  2.569845  2.441737  2.415094  2.520788  2.562848  2.493506  2.498915  2.600451  2.488121 
dram[1]:  2.477348  2.528217  2.533937  2.595597  2.472648  2.448537  2.472785  2.555678  2.438095  2.526316  2.435518  2.585859  2.523549  2.540243  2.397503  2.580067 
dram[2]:  2.440347  2.533937  2.440087  2.632197  2.401700  2.463547  2.417536  2.525054  2.351020  2.545856  2.415094  2.548673  2.477419  2.565701  2.355828  2.498915 
dram[3]:  1.997324  2.533937  2.001787  2.641510  1.921769  2.599311  2.019164  2.600897  1.908113  2.443266  2.107960  2.600451  2.055308  2.545856  1.982788  2.568562 
dram[4]:  2.450273  2.450766  2.598608  2.626026  2.364017  2.565267  2.400621  2.665517  2.367934  2.482759  2.582960  2.630137  2.415094  2.520788  2.385093  2.560000 
dram[5]:  2.474614  2.551253  2.595597  2.595597  2.467249  2.473282  2.573333  2.538883  2.456290  2.430380  2.534653  2.526316  2.580067  2.509804  2.496208  2.539140 
average row locality = 219325/89379 = 2.453876
number of total memory accesses made:
dram[0]:         0         0         0         0         0         0         0         0         0         0         0         0         0         0         0         0 
dram[1]:         0         0         0         0         0         0         0         0         0         0         0         0         0         0         0         0 
dram[2]:         0         0         0         0         0         0         0         0         0         0         0         0         0         0         0         0 
dram[3]:         0         0         0         0         0         0         0         0         0         0         0         0         0         0         0         0 
dram[4]:         0         0         0         0         0         0         0         0         0         0         0         0         0         0         0         0 
dram[5]:         0         0         0         0         0         0         0         0         0         0         0         0         0         0         0         0 
total accesses: 0
min_bank_accesses = 0!
min_chip_accesses = 0!
number of total read accesses:
dram[0]:      1153      1152      1152      1152      1153      1152      1152      1152      1152      1152      1152      1152      1152      1152      1152      1152 
dram[1]:      1150      1152      1152      1152      1152      1152      1152      1152      1152      1152      1152      1152      1152      1152      1152      1152 
dram[2]:      1154      1152      1152      1152      1152      1156      1152      1152      1152      1152      1152      1152      1152      1152      1152      1152 
dram[3]:      1153      1152      1152      1152      1152      1156      1152      1152      1152      1152      1152      1152      1152      1152      1152      1152 
dram[4]:      1154      1152      1152      1152      1152      1154      1152      1152      1152      1152      1152      1152      1152      1152      1152      1152 
dram[5]:      1154      1152      1152      1152      1152      1154      1152      1152      1152      1152      1152      1152      1152      1152      1152      1152 
total reads: 110611
bank skew: 1156/1150 = 1.01
chip skew: 18438/18430 = 1.00
number of total write accesses:
dram[0]:      1092      1088      1088      1088      1109      1108      1165      1166      1153      1152      1152      1152      1152      1152      1152      1152 
dram[1]:      1092      1088      1088      1088      1108      1108      1165      1166      1152      1152      1152      1152      1152      1152      1152      1152 
dram[2]:      1096      1088      1088      1088      1108      1108      1164      1166      1152      1152      1152      1152      1152      1152      1152      1152 
dram[3]:      1086      1088      1088      1088      1108      1108      1166      1168      1153      1152      1152      1152      1152      1152      1152      1152 
dram[4]:      1088      1088      1088      1088      1108      1106      1167      1167      1152      1152      1152      1152      1152      1152      1152      1152 
dram[5]:      1088      1088      1088      1088      1108      1114      1164      1166      1152      1152      1152      1152      1152      1152      1152      1151 
total reads: 108714
bank skew: 1168/1086 = 1.08
chip skew: 18122/18116 = 1.00
average mf latency per bank:
dram[0]:        734       758       736       771       778       805       903       915       918       937       919       941       919       935       924       937
dram[1]:        716       745       725       755       785       783       910       900       916       941       934       927       914       932       918       941
dram[2]:        774       751       768       759       817       805       950       928       956       922       954       916       955       920       950       928
dram[3]:      20232       732      1219       732      1295       794      1507       907      1532       915      1524       914      1516       923      1526       911
dram[4]:        794       732       784       737       830       791       949       915       967       914       966       911       974       924       956       921
dram[5]:        770       739       773       753       823       794       946       918       969       944       956       921       949       922       942       938
maximum mf latency per bank:
dram[0]:       1460      1240      1469      1500      1345      1232      1146      1201      1124      1011      1105      1036      1184      1161      1183      1183
dram[1]:       1306      1212      1606      1729      1162      1063      1211      1132      1100      1051      1173      1103      1106      1309      1174      1181
dram[2]:       1325      1635      1611      1998      1170      1017      1176      1116      1123      1227      1155      1287      1146      1110      1205      1362
dram[3]:       2256      1215      1639      1321      1843      1040      1425      1140      1384      1222      1541      1273      1321      1265      1464      1196
dram[4]:       1498      1308      1593      1761      1343      1133      1281      1273      1233      1117      1159      1128      1131      1176      1349      1169
dram[5]:       1541      1583      1483      1828      1136      1173      1157      1053      1119      1127      1218      1068      1205      1136      1339      1143
Memory Partition 0: 
Cache L2_bank_000:
MSHR contents

Cache L2_bank_001:
MSHR contents

In Dram Latency Queue (total = 0): 
DRAM[0]: 16 bks, busW=4 BL=8 CL=12, tRRD=2 tCCD=6, tRCD=12 tRAS=28 tRP=12 tRC=40
n_cmd=797904 n_nop=696954 n_act=14612 n_pre=14596 n_req=36555 n_rd=36868 n_write=34874 bw_util=0.1798
n_activity=478763 dram_eff=0.2997
bk0: 2306a 752092i bk1: 2304a 752126i bk2: 2304a 751564i bk3: 2304a 750524i bk4: 2306a 753211i bk5: 2304a 752788i bk6: 2304a 751895i bk7: 2304a 751488i bk8: 2304a 751290i bk9: 2304a 749645i bk10: 2304a 751185i bk11: 2304a 751682i bk12: 2304a 750332i bk13: 2304a 749931i bk14: 2304a 751745i bk15: 2304a 749175i 
dram_util_bins: 0 0 0 0 0 0 0 0 0 0
dram_eff_bins: 0 0 0 0 0 0 0 0 0 0
mrqq: max=16 avg=1.62913
Memory Partition 1: 
Cache L2_bank_002:
MSHR contents

Cache L2_bank_003:
MSHR contents

In Dram Latency Queue (total = 0): 
DRAM[1]: 16 bks, busW=4 BL=8 CL=12, tRRD=2 tCCD=6, tRCD=12 tRAS=28 tRP=12 tRC=40
n_cmd=797904 n_nop=697016 n_act=14587 n_pre=14571 n_req=36549 n_rd=36860 n_write=34870 bw_util=0.1798
n_activity=478991 dram_eff=0.2995
bk0: 2300a 752119i bk1: 2304a 752515i bk2: 2304a 752164i bk3: 2304a 751617i bk4: 2304a 752916i bk5: 2304a 751630i bk6: 2304a 751255i bk7: 2304a 750854i bk8: 2304a 751244i bk9: 2304a 750665i bk10: 2304a 749714i bk11: 2304a 750905i bk12: 2304a 751132i bk13: 2304a 750767i bk14: 2304a 749386i bk15: 2304a 750134i 
dram_util_bins: 0 0 0 0 0 0 0 0 0 0
dram_eff_bins: 0 0 0 0 0 0 0 0 0 0
mrqq: max=16 avg=1.60836
Memory Partition 2: 
Cache L2_bank_004:
MSHR contents

Cache L2_bank_005:
MSHR contents

In Dram Latency Queue (total = 0): 
DRAM[2]: 16 bks, busW=4 BL=8 CL=12, tRRD=2 tCCD=6, tRCD=12 tRAS=28 tRP=12 tRC=40
n_cmd=797904 n_nop=696604 n_act=14782 n_pre=14766 n_req=36560 n_rd=36876 n_write=34876 bw_util=0.1799
n_activity=479531 dram_eff=0.2993
bk0: 2308a 752687i bk1: 2304a 752164i bk2: 2304a 750702i bk3: 2304a 751771i bk4: 2304a 752331i bk5: 2312a 751502i bk6: 2304a 750859i bk7: 2304a 751022i bk8: 2304a 749857i bk9: 2304a 750944i bk10: 2304a 750246i bk11: 2304a 750848i bk12: 2304a 749940i bk13: 2304a 750537i bk14: 2304a 748540i bk15: 2304a 748517i 
dram_util_bins: 0 0 0 0 0 0 0 0 0 0
dram_eff_bins: 0 0 0 0 0 0 0 0 0 0
mrqq: max=16 avg=1.61005
Memory Partition 3: 
Cache L2_bank_006:
MSHR contents

Cache L2_bank_007:
MSHR contents

In Dram Latency Queue (total = 0): 
DRAM[3]: 16 bks, busW=4 BL=8 CL=12, tRRD=2 tCCD=6, tRCD=12 tRAS=28 tRP=12 tRC=40
n_cmd=797904 n_nop=693624 n_act=16274 n_pre=16258 n_req=36554 n_rd=36874 n_write=34874 bw_util=0.1798
n_activity=554036 dram_eff=0.259
bk0: 2306a 746987i bk1: 2304a 753138i bk2: 2304a 745449i bk3: 2304a 753229i bk4: 2304a 745792i bk5: 2312a 754519i bk6: 2304a 746177i bk7: 2304a 752043i bk8: 2304a 743243i bk9: 2304a 751386i bk10: 2304a 746643i bk11: 2304a 753037i bk12: 2304a 745623i bk13: 2304a 751869i bk14: 2304a 743645i bk15: 2304a 751171i 
dram_util_bins: 0 0 0 0 0 0 0 0 0 0
dram_eff_bins: 0 0 0 0 0 0 0 0 0 0
mrqq: max=16 avg=1.41379
Memory Partition 4: 
Cache L2_bank_008:
MSHR contents

Cache L2_bank_009:
MSHR contents

In Dram Latency Queue (total = 0): 
DRAM[4]: 16 bks, busW=4 BL=8 CL=12, tRRD=2 tCCD=6, tRCD=12 tRAS=28 tRP=12 tRC=40
n_cmd=797904 n_nop=696936 n_act=14620 n_pre=14604 n_req=36552 n_rd=36872 n_write=34872 bw_util=0.1798
n_activity=480075 dram_eff=0.2989
bk0: 2308a 751962i bk1: 2304a 750538i bk2: 2304a 751897i bk3: 2304a 751622i bk4: 2304a 751369i bk5: 2308a 752294i bk6: 2304a 750187i bk7: 2304a 752679i bk8: 2304a 750735i bk9: 2304a 750662i bk10: 2304a 752659i bk11: 2304a 752012i bk12: 2304a 750465i bk13: 2304a 750907i bk14: 2304a 748794i bk15: 2304a 749030i 
dram_util_bins: 0 0 0 0 0 0 0 0 0 0
dram_eff_bins: 0 0 0 0 0 0 0 0 0 0
mrqq: max=16 avg=1.65532
Memory Partition 5: 
Cache L2_bank_010:
MSHR contents

Cache L2_bank_011:
MSHR contents

In Dram Latency Queue (total = 0): 
DRAM[5]: 16 bks, busW=4 BL=8 CL=12, tRRD=2 tCCD=6, tRCD=12 tRAS=28 tRP=12 tRC=40
n_cmd=797904 n_nop=697169 n_act=14504 n_pre=14488 n_req=36555 n_rd=36872 n_write=34871 bw_util=0.1798
n_activity=476918 dram_eff=0.3009
bk0: 2308a 752644i bk1: 2304a 752335i bk2: 2304a 751087i bk3: 2304a 752106i bk4: 2304a 753283i bk5: 2308a 751841i bk6: 2304a 752177i bk7: 2304a 751641i bk8: 2304a 751388i bk9: 2304a 750456i bk10: 2304a 751379i bk11: 2304a 751267i bk12: 2304a 752276i bk13: 2304a 750075i bk14: 2304a 750120i bk15: 2304a 749695i 
dram_util_bins: 0 0 0 0 0 0 0 0 0 0
dram_eff_bins: 0 0 0 0 0 0 0 0 0 0
mrqq: max=16 avg=1.65323

========= L2 cache stats =========
L2_cache_bank[0]: Access = 49672, Miss = 9218, Miss_rate = 0.186, Pending_hits = 3080, Reservation_fails = 33474
L2_cache_bank[1]: Access = 49630, Miss = 9216, Miss_rate = 0.186, Pending_hits = 3015, Reservation_fails = 33232
L2_cache_bank[2]: Access = 49659, Miss = 9214, Miss_rate = 0.186, Pending_hits = 3055, Reservation_fails = 31457
L2_cache_bank[3]: Access = 49620, Miss = 9216, Miss_rate = 0.186, Pending_hits = 3100, Reservation_fails = 32056
L2_cache_bank[4]: Access = 49668, Miss = 9218, Miss_rate = 0.186, Pending_hits = 3069, Reservation_fails = 32179
L2_cache_bank[5]: Access = 49724, Miss = 9220, Miss_rate = 0.185, Pending_hits = 3111, Reservation_fails = 32514
L2_cache_bank[6]: Access = 115183, Miss = 9217, Miss_rate = 0.080, Pending_hits = 2920, Reservation_fails = 29786
L2_cache_bank[7]: Access = 49725, Miss = 9220, Miss_rate = 0.185, Pending_hits = 3080, Reservation_fails = 32113
L2_cache_bank[8]: Access = 49652, Miss = 9218, Miss_rate = 0.186, Pending_hits = 3075, Reservation_fails = 32634
L2_cache_bank[9]: Access = 49718, Miss = 9218, Miss_rate = 0.185, Pending_hits = 3045, Reservation_fails = 31002
L2_cache_bank[10]: Access = 49631, Miss = 9218, Miss_rate = 0.186, Pending_hits = 3017, Reservation_fails = 31656
L2_cache_bank[11]: Access = 49745, Miss = 9218, Miss_rate = 0.185, Pending_hits = 3115, Reservation_fails = 33623
L2_total_cache_accesses = 661627
L2_total_cache_misses = 110611
L2_total_cache_miss_rate = 0.1672
L2_total_cache_pending_hits = 36682
L2_total_cache_reservation_fails = 385726
L2_total_cache_breakdown:
	L2_cache_stats_breakdown[GLOBAL_ACC_R][HIT] = 293012
	L2_cache_stats_breakdown[GLOBAL_ACC_R][HIT_RESERVED] = 30506
	L2_cache_stats_breakdown[GLOBAL_ACC_R][MISS] = 108550
	L2_cache_stats_breakdown[GLOBAL_ACC_R][RESERVATION_FAIL] = 102739
	L2_cache_stats_breakdown[CONST_ACC_R][HIT] = 11
	L2_cache_stats_breakdown[CONST_ACC_R][HIT_RESERVED] = 3
	L2_cache_stats_breakdown[CONST_ACC_R][MISS] = 1
	L2_cache_stats_breakdown[CONST_ACC_R][RESERVATION_FAIL] = 119
	L2_cache_stats_breakdown[GLOBAL_ACC_W][HIT] = 221187
	L2_cache_stats_breakdown[GLOBAL_ACC_W][HIT_RESERVED] = 6143
	L2_cache_stats_breakdown[GLOBAL_ACC_W][MISS] = 2048
	L2_cache_stats_breakdown[GLOBAL_ACC_W][RESERVATION_FAIL] = 281647
	L2_cache_stats_breakdown[INST_ACC_R][HIT] = 124
	L2_cache_stats_breakdown[INST_ACC_R][HIT_RESERVED] = 30
	L2_cache_stats_breakdown[INST_ACC_R][MISS] = 12
	L2_cache_stats_breakdown[INST_ACC_R][RESERVATION_FAIL] = 1221
L2_cache_data_port_util = 0.179
L2_cache_fill_port_util = 0.046

icnt_total_pkts_mem_to_simt=1781072
icnt_total_pkts_simt_to_mem=1235075
LD_mem_lat_dist  0 0 0 0 0 0 0 0 0 0 0 0 0 0 0 0 0 0 0 0 0 0 0 0 0 0 0
ST_mem_lat_dist  0 0 0 0 0 0 0 0 0 0 0 0 0 0 0 0 0 0 0 0 0 0 0 0 0 0 0
----------------------------Interconnect-DETAILS--------------------------------
Class 0:
Packet latency average = 107.761
	minimum = 6
	maximum = 2021
Network latency average = 62.0644
	minimum = 6
	maximum = 1022
Slowest packet = 397560
Flit latency average = 41.674
	minimum = 6
	maximum = 1022
Slowest flit = 836865
Fragmentation average = 0.102398
	minimum = 0
	maximum = 419
Injected packet rate average = 0.0576913
	minimum = 0.0511464 (at node 9)
	maximum = 0.165955 (at node 21)
Accepted packet rate average = 0.0576913
	minimum = 0.0511464 (at node 9)
	maximum = 0.165955 (at node 21)
Injected flit rate average = 0.13581
	minimum = 0.09097 (at node 9)
	maximum = 0.695485 (at node 21)
Accepted flit rate average= 0.13581
	minimum = 0.106164 (at node 17)
	maximum = 0.216486 (at node 21)
Injected packet length average = 2.35408
Accepted packet length average = 2.35408
Total in-flight flits = 0 (0 measured)
====== Overall Traffic Statistics ======
====== Traffic class 0 ======
Packet latency average = 66.6331 (2 samples)
	minimum = 6 (2 samples)
	maximum = 1359.5 (2 samples)
Network latency average = 40.6103 (2 samples)
	minimum = 6 (2 samples)
	maximum = 796 (2 samples)
Flit latency average = 29.3158 (2 samples)
	minimum = 6 (2 samples)
	maximum = 796 (2 samples)
Fragmentation average = 0.136205 (2 samples)
	minimum = 0 (2 samples)
	maximum = 401.5 (2 samples)
Injected packet rate average = 0.0650054 (2 samples)
	minimum = 0.0577352 (2 samples)
	maximum = 0.123743 (2 samples)
Accepted packet rate average = 0.0650054 (2 samples)
	minimum = 0.0577352 (2 samples)
	maximum = 0.123743 (2 samples)
Injected flit rate average = 0.14403 (2 samples)
	minimum = 0.112108 (2 samples)
	maximum = 0.435034 (2 samples)
Accepted flit rate average = 0.14403 (2 samples)
	minimum = 0.121887 (2 samples)
	maximum = 0.192657 (2 samples)
Injected packet size average = 2.21566 (2 samples)
Accepted packet size average = 2.21566 (2 samples)
Hops average = 1 (2 samples)
----------------------------END-of-Interconnect-DETAILS-------------------------


gpgpu_simulation_time = 0 days, 1 hrs, 37 min, 34 sec (5854 sec)
gpgpu_simulation_rate = 31088 (inst/sec)
gpgpu_simulation_rate = 136 (cycle/sec)
Training done
