

        *** GPGPU-Sim Simulator Version 3.2.2  [build 0] ***


GPGPU-Sim PTX: simulation mode 0 (can change with PTX_SIM_MODE_FUNC environment variable:
               1=functional simulation only, 0=detailed performance simulator)
GPGPU-Sim: Configuration options:

-network_mode                           1 # Interconnection network mode
-inter_config_file   config_fermi_islip.icnt # Interconnection network config file
-gpgpu_ptx_use_cuobjdump                    1 # Use cuobjdump to extract ptx and sass from binaries
-gpgpu_experimental_lib_support                    0 # Try to extract code from cuda libraries [Broken because of unknown cudaGetExportTable]
-gpgpu_ptx_convert_to_ptxplus                    0 # Convert SASS (native ISA) to ptxplus and run ptxplus
-gpgpu_ptx_force_max_capability                   20 # Force maximum compute capability
-gpgpu_ptx_inst_debug_to_file                    0 # Dump executed instructions' debug information to file
-gpgpu_ptx_inst_debug_file       inst_debug.txt # Executed instructions' debug output file
-gpgpu_ptx_inst_debug_thread_uid                    1 # Thread UID for executed instructions' debug output
-gpgpu_simd_model                       1 # 1 = post-dominator
-gpgpu_shader_core_pipeline              1536:32 # shader core pipeline config, i.e., {<nthread>:<warpsize>}
-gpgpu_tex_cache:l1  4:128:24,L:R:m:N:L,F:128:4,128:2 # per-shader L1 texture cache  (READ-ONLY) config  {<nsets>:<bsize>:<assoc>,<rep>:<wr>:<alloc>:<wr_alloc>,<mshr>:<N>:<merge>,<mq>:<rf>}
-gpgpu_const_cache:l1 64:64:2,L:R:f:N:L,A:2:32,4 # per-shader L1 constant memory cache  (READ-ONLY) config  {<nsets>:<bsize>:<assoc>,<rep>:<wr>:<alloc>:<wr_alloc>,<mshr>:<N>:<merge>,<mq>} 
-gpgpu_cache:il1     4:128:4,L:R:f:N:L,A:2:32,4 # shader L1 instruction cache config  {<nsets>:<bsize>:<assoc>,<rep>:<wr>:<alloc>:<wr_alloc>,<mshr>:<N>:<merge>,<mq>} 
-gpgpu_cache:dl1     32:128:4,L:L:m:N:H,A:32:8,8 # per-shader L1 data cache config  {<nsets>:<bsize>:<assoc>,<rep>:<wr>:<alloc>:<wr_alloc>,<mshr>:<N>:<merge>,<mq> | none}
-gpgpu_cache:dl1PrefL1                 none # per-shader L1 data cache config  {<nsets>:<bsize>:<assoc>,<rep>:<wr>:<alloc>:<wr_alloc>,<mshr>:<N>:<merge>,<mq> | none}
-gpgpu_cache:dl1PreShared                 none # per-shader L1 data cache config  {<nsets>:<bsize>:<assoc>,<rep>:<wr>:<alloc>:<wr_alloc>,<mshr>:<N>:<merge>,<mq> | none}
-gmem_skip_L1D                          0 # global memory access skip L1D cache (implements -Xptxas -dlcm=cg, default=no skip)
-gpgpu_perfect_mem                      0 # enable perfect memory mode (no cache miss)
-n_regfile_gating_group                    4 # group of lanes that should be read/written together)
-gpgpu_clock_gated_reg_file                    0 # enable clock gated reg file for power calculations
-gpgpu_clock_gated_lanes                    0 # enable clock gated lanes for power calculations
-gpgpu_shader_registers                32768 # Number of registers per shader core. Limits number of concurrent CTAs. (default 8192)
-gpgpu_shader_cta                       8 # Maximum number of concurrent CTAs in shader (default 8)
-gpgpu_num_cta_barriers                   16 # Maximum number of named barriers per CTA (default 16)
-gpgpu_n_clusters                      15 # number of processing clusters
-gpgpu_n_cores_per_cluster                    1 # number of simd cores per cluster
-gpgpu_n_cluster_ejection_buffer_size                    8 # number of packets in ejection buffer
-gpgpu_n_ldst_response_buffer_size                    2 # number of response packets in ld/st unit ejection buffer
-gpgpu_shmem_size                   16384 # Size of shared memory per shader core (default 16kB)
-gpgpu_shmem_size                   49152 # Size of shared memory per shader core (default 16kB)
-gpgpu_shmem_size_PrefL1                16384 # Size of shared memory per shader core (default 16kB)
-gpgpu_shmem_size_PrefShared                16384 # Size of shared memory per shader core (default 16kB)
-gpgpu_shmem_num_banks                   32 # Number of banks in the shared memory in each shader core (default 16)
-gpgpu_shmem_limited_broadcast                    0 # Limit shared memory to do one broadcast per cycle (default on)
-gpgpu_shmem_warp_parts                    1 # Number of portions a warp is divided into for shared memory bank conflict check 
-gpgpu_warpdistro_shader                   -1 # Specify which shader core to collect the warp size distribution from
-gpgpu_warp_issue_shader                    0 # Specify which shader core to collect the warp issue distribution from
-gpgpu_local_mem_map                    1 # Mapping from local memory space address to simulated GPU physical address space (default = enabled)
-gpgpu_num_reg_banks                   16 # Number of register banks (default = 8)
-gpgpu_reg_bank_use_warp_id                    0 # Use warp ID in mapping registers to banks (default = off)
-gpgpu_operand_collector_num_units_sp                    6 # number of collector units (default = 4)
-gpgpu_operand_collector_num_units_sfu                    8 # number of collector units (default = 4)
-gpgpu_operand_collector_num_units_mem                    2 # number of collector units (default = 2)
-gpgpu_operand_collector_num_units_gen                    0 # number of collector units (default = 0)
-gpgpu_operand_collector_num_in_ports_sp                    2 # number of collector unit in ports (default = 1)
-gpgpu_operand_collector_num_in_ports_sfu                    1 # number of collector unit in ports (default = 1)
-gpgpu_operand_collector_num_in_ports_mem                    1 # number of collector unit in ports (default = 1)
-gpgpu_operand_collector_num_in_ports_gen                    0 # number of collector unit in ports (default = 0)
-gpgpu_operand_collector_num_out_ports_sp                    2 # number of collector unit in ports (default = 1)
-gpgpu_operand_collector_num_out_ports_sfu                    1 # number of collector unit in ports (default = 1)
-gpgpu_operand_collector_num_out_ports_mem                    1 # number of collector unit in ports (default = 1)
-gpgpu_operand_collector_num_out_ports_gen                    0 # number of collector unit in ports (default = 0)
-gpgpu_coalesce_arch                   13 # Coalescing arch (default = 13, anything else is off for now)
-gpgpu_num_sched_per_core                    2 # Number of warp schedulers per core
-gpgpu_max_insn_issue_per_warp                    1 # Max number of instructions that can be issued per warp in one cycle by scheduler
-gpgpu_simt_core_sim_order                    1 # Select the simulation order of cores in a cluster (0=Fix, 1=Round-Robin)
-gpgpu_pipeline_widths        2,1,1,2,1,1,2 # Pipeline widths ID_OC_SP,ID_OC_SFU,ID_OC_MEM,OC_EX_SP,OC_EX_SFU,OC_EX_MEM,EX_WB
-gpgpu_num_sp_units                     2 # Number of SP units (default=1)
-gpgpu_num_sfu_units                    1 # Number of SF units (default=1)
-gpgpu_num_mem_units                    1 # Number if ldst units (default=1) WARNING: not hooked up to anything
-gpgpu_scheduler                      gto # Scheduler configuration: < lrr | gto | two_level_active > If two_level_active:<num_active_warps>:<inner_prioritization>:<outer_prioritization>For complete list of prioritization values see shader.h enum scheduler_prioritization_typeDefault: gto
-gpgpu_dram_scheduler                    1 # 0 = fifo, 1 = FR-FCFS (defaul)
-gpgpu_dram_partition_queues              8:8:8:8 # i2$:$2d:d2$:$2i
-l2_ideal                               0 # Use a ideal L2 cache that always hit
-gpgpu_cache:dl2     64:128:8,L:B:m:W:L,A:32:4,4:0,32 # unified banked L2 data cache config  {<nsets>:<bsize>:<assoc>,<rep>:<wr>:<alloc>:<wr_alloc>,<mshr>:<N>:<merge>,<mq>}
-gpgpu_cache:dl2_texture_only                    0 # L2 cache used for texture only
-gpgpu_n_mem                            6 # number of memory modules (e.g. memory controllers) in gpu
-gpgpu_n_sub_partition_per_mchannel                    2 # number of memory subpartition in each memory module
-gpgpu_n_mem_per_ctrlr                    2 # number of memory chips per memory controller
-gpgpu_memlatency_stat                   14 # track and display latency statistics 0x2 enables MC, 0x4 enables queue logs
-gpgpu_frfcfs_dram_sched_queue_size                   16 # 0 = unlimited (default); # entries per chip
-gpgpu_dram_return_queue_size                   84 # 0 = unlimited (default); # entries per chip
-gpgpu_dram_buswidth                    4 # default = 4 bytes (8 bytes per cycle at DDR)
-gpgpu_dram_burst_length                    8 # Burst length of each DRAM request (default = 4 data bus cycle)
-dram_data_command_freq_ratio                    4 # Frequency ratio between DRAM data bus and command bus (default = 2 times, i.e. DDR)
-gpgpu_dram_timing_opt nbk=16:CCD=2:RRD=6:RCD=12:RAS=28:RP=12:RC=40: CL=12:WL=4:CDLR=5:WR=12:nbkgrp=4:CCDL=3:RTPL=2 # DRAM timing parameters = {nbk:tCCD:tRRD:tRCD:tRAS:tRP:tRC:CL:WL:tCDLR:tWR:nbkgrp:tCCDL:tRTPL}
-rop_latency                          120 # ROP queue latency (default 85)
-dram_latency                         100 # DRAM latency (default 30)
-gpgpu_mem_addr_mapping dramid@8;00000000.00000000.00000000.00000000.0000RRRR.RRRRRRRR.BBBCCCCB.CCSSSSSS # mapping memory address to dram model {dramid@<start bit>;<memory address map>}
-gpgpu_mem_addr_test                    0 # run sweep test to check address mapping for aliased address
-gpgpu_mem_address_mask                    1 # 0 = old addressing mask, 1 = new addressing mask, 2 = new add. mask + flipped bank sel and chip sel bits
-gpuwattch_xml_file  gpuwattch_gtx480.xml # GPUWattch XML file
-power_simulation_enabled                    1 # Turn on power simulator (1=On, 0=Off)
-power_per_cycle_dump                    0 # Dump detailed power output each cycle
-power_trace_enabled                    0 # produce a file for the power trace (1=On, 0=Off)
-power_trace_zlevel                     6 # Compression level of the power trace output log (0=no comp, 9=highest)
-steady_power_levels_enabled                    0 # produce a file for the steady power levels (1=On, 0=Off)
-steady_state_definition                  8:4 # allowed deviation:number of samples
-gpgpu_max_cycle                        0 # terminates gpu simulation early (0 = no limit)
-gpgpu_max_insn                         0 # terminates gpu simulation early (0 = no limit)
-gpgpu_max_cta                          0 # terminates gpu simulation early (0 = no limit)
-gpgpu_runtime_stat                   500 # display runtime statistics such as dram utilization {<freq>:<flag>}
-liveness_message_freq                    1 # Minimum number of seconds between simulation liveness messages (0 = always print)
-gpgpu_flush_l1_cache                    0 # Flush L1 cache at the end of each kernel call
-gpgpu_flush_l2_cache                    0 # Flush L2 cache at the end of each kernel call
-gpgpu_deadlock_detect                    1 # Stop the simulation at deadlock (1=on (default), 0=off)
-gpgpu_ptx_instruction_classification                    0 # if enabled will classify ptx instruction types per kernel (Max 255 kernels now)
-gpgpu_ptx_sim_mode                     0 # Select between Performance (default) or Functional simulation (1)
-gpgpu_clock_domains 700.0:700.0:700.0:700.0 # Clock Domain Frequencies in MhZ {<Core Clock>:<ICNT Clock>:<L2 Clock>:<DRAM Clock>}
-gpgpu_max_concurrent_kernel                    8 # maximum kernels that can run concurrently on GPU
-gpgpu_cflog_interval                    0 # Interval between each snapshot in control flow logger
-visualizer_enabled                     0 # Turn on visualizer output (1=On, 0=Off)
-visualizer_outputfile                 NULL # Specifies the output log file for visualizer
-visualizer_zlevel                      6 # Compression level of the visualizer output log (0=no comp, 9=highest)
-trace_enabled                          0 # Turn on traces
-trace_components                    none # comma seperated list of traces to enable. Complete list found in trace_streams.tup. Default none
-trace_sampling_core                    0 # The core which is printed using CORE_DPRINTF. Default 0
-trace_sampling_memory_partition                   -1 # The memory partition which is printed using MEMPART_DPRINTF. Default -1 (i.e. all)
-enable_ptx_file_line_stats                    1 # Turn on PTX source line statistic profiling. (1 = On)
-ptx_line_stats_filename gpgpu_inst_stats.txt # Output file for PTX source line statistics.
-save_embedded_ptx                      0 # saves ptx files embedded in binary as <n>.ptx
-keep                                   0 # keep intermediate files created by GPGPU-Sim when interfacing with external programs
-gpgpu_ptx_save_converted_ptxplus                    0 # Saved converted ptxplus to a file
-ptx_opcode_latency_int         4,13,4,5,145 # Opcode latencies for integers <ADD,MAX,MUL,MAD,DIV>Default 1,1,19,25,145
-ptx_opcode_latency_fp          4,13,4,5,39 # Opcode latencies for single precision floating points <ADD,MAX,MUL,MAD,DIV>Default 1,1,1,1,30
-ptx_opcode_latency_dp         8,19,8,8,330 # Opcode latencies for double precision floating points <ADD,MAX,MUL,MAD,DIV>Default 8,8,8,8,335
-ptx_opcode_initiation_int            1,2,2,1,8 # Opcode initiation intervals for integers <ADD,MAX,MUL,MAD,DIV>Default 1,1,4,4,32
-ptx_opcode_initiation_fp            1,2,1,1,4 # Opcode initiation intervals for single precision floating points <ADD,MAX,MUL,MAD,DIV>Default 1,1,1,1,5
-ptx_opcode_initiation_dp         8,16,8,8,130 # Opcode initiation intervals for double precision floating points <ADD,MAX,MUL,MAD,DIV>Default 8,8,8,8,130
DRAM Timing Options:
nbk                                    16 # number of banks
CCD                                     2 # column to column delay
RRD                                     6 # minimal delay between activation of rows in different banks
RCD                                    12 # row to column delay
RAS                                    28 # time needed to activate row
RP                                     12 # time needed to precharge (deactivate) row
RC                                     40 # row cycle time
CDLR                                    5 # switching from write to read (changes tWTR)
WR                                     12 # last data-in to row precharge
CL                                     12 # CAS latency
WL                                      4 # Write latency
nbkgrp                                  4 # number of bank groups
CCDL                                    3 # column to column delay between accesses to different bank groups
RTPL                                    2 # read to precharge delay between accesses to different bank groups
Total number of memory sub partition = 12
addr_dec_mask[CHIP]  = 0000000000000000 	high:64 low:0
addr_dec_mask[BK]    = 000000000000e100 	high:16 low:8
addr_dec_mask[ROW]   = 000000000fff0000 	high:28 low:16
addr_dec_mask[COL]   = 0000000000001eff 	high:13 low:0
addr_dec_mask[BURST] = 000000000000003f 	high:6 low:0
sub_partition_id_mask = 0000000000000100
GPGPU-Sim uArch: clock freqs: 700000000.000000:700000000.000000:700000000.000000:700000000.000000
GPGPU-Sim uArch: clock periods: 0.00000000142857142857:0.00000000142857142857:0.00000000142857142857:0.00000000142857142857
*** Initializing Memory Statistics ***
GPGPU-Sim uArch: interconnect node map (shaderID+MemID to icntID)
GPGPU-Sim uArch: Memory nodes ID start from index: 15
GPGPU-Sim uArch:    0   1   2   3   4
GPGPU-Sim uArch:    5   6   7   8   9
GPGPU-Sim uArch:   10  11  12  13  14
GPGPU-Sim uArch:   15  16  17  18  19
GPGPU-Sim uArch:   20  21  22  23  24
GPGPU-Sim uArch:   25  26
GPGPU-Sim uArch: interconnect node reverse map (icntID to shaderID+MemID)
GPGPU-Sim uArch: Memory nodes start from ID: 15
GPGPU-Sim uArch:    0   1   2   3   4
GPGPU-Sim uArch:    5   6   7   8   9
GPGPU-Sim uArch:   10  11  12  13  14
GPGPU-Sim uArch:   15  16  17  18  19
GPGPU-Sim uArch:   20  21  22  23  24
GPGPU-Sim uArch:   25  26
07b75004035201a3e825f0934708d91f  /home/gpgpu-sim/ECE523_Repo/benchmarks/test/backprop-rodinia-3.1
GPGPU-Sim uArch: performance model initialization complete.
GPGPU-Sim PTX: __cudaRegisterFatBinary, fat_cubin_handle = 1, filename=backprop_cuda.cu
self exe links to: /home/gpgpu-sim/ECE523_Repo/benchmarks/test/backprop-rodinia-3.1
Running md5sum using "md5sum /home/gpgpu-sim/ECE523_Repo/benchmarks/test/backprop-rodinia-3.1 "
Running cuobjdump using "$CUDA_INSTALL_PATH/bin/cuobjdump -ptx -elf -sass /home/gpgpu-sim/ECE523_Repo/benchmarks/test/backprop-rodinia-3.1 > _cuobjdump_complete_output_UPiTHj"
Parsing file _cuobjdump_complete_output_UPiTHj
######### cuobjdump parser ########
## Adding new section ELF
Adding arch: sm_30
Adding identifier: backprop_cuda.cu
## Adding new section PTX
Adding ptx filename: _cuobjdump_1.ptx
Adding arch: sm_30
Adding identifier: backprop_cuda.cu
## Adding new section ELF
Adding arch: sm_13
Adding identifier: backprop_cuda.cu
## Adding new section PTX
Adding ptx filename: _cuobjdump_2.ptx
Adding arch: sm_13
Adding identifier: backprop_cuda.cu
## Adding new section ELF
Adding arch: sm_20
Adding identifier: backprop_cuda.cu
## Adding new section PTX
Adding ptx filename: _cuobjdump_3.ptx
Adding arch: sm_20
Adding identifier: backprop_cuda.cu
## Adding new section ELF
Adding arch: sm_10
Adding identifier: backprop_cuda.cu
## Adding new section PTX
Adding ptx filename: _cuobjdump_4.ptx
Adding arch: sm_10
Adding identifier: backprop_cuda.cu
Done parsing!!!
GPGPU-Sim PTX: __cudaRegisterFunction _Z24bpnn_adjust_weights_cudaPfiS_iS_S_ : hostFun 0x0x4020c0, fat_cubin_handle = 1
GPGPU-Sim PTX: allocating shared region for "__cuda_local_var_18302_34_non_const_input_node" from 0x0 to 0x40 (shared memory space)
GPGPU-Sim PTX: allocating shared region for "__cuda_local_var_18303_34_non_const_weight_matrix" from 0x80 to 0x480 (shared memory space)
GPGPU-Sim PTX: instruction assembly for function '_Z22bpnn_layerforward_CUDAPfS_S_S_ii'...   done.
GPGPU-Sim PTX: finding reconvergence points for '_Z22bpnn_layerforward_CUDAPfS_S_S_ii'...
GPGPU-Sim PTX: Finding dominators for '_Z22bpnn_layerforward_CUDAPfS_S_S_ii'...
GPGPU-Sim PTX: Finding immediate dominators for '_Z22bpnn_layerforward_CUDAPfS_S_S_ii'...
GPGPU-Sim PTX: Finding postdominators for '_Z22bpnn_layerforward_CUDAPfS_S_S_ii'...
GPGPU-Sim PTX: Finding immediate postdominators for '_Z22bpnn_layerforward_CUDAPfS_S_S_ii'...
GPGPU-Sim PTX: pre-decoding instructions for '_Z22bpnn_layerforward_CUDAPfS_S_S_ii'...
GPGPU-Sim PTX: reconvergence points for _Z22bpnn_layerforward_CUDAPfS_S_S_ii...
GPGPU-Sim PTX:  1 (potential) branch divergence @  PC=0x0b0 (_1.ptx:69) @%p2 bra BB0_2;
GPGPU-Sim PTX:    immediate post dominator      @  PC=0x0e8 (_1.ptx:81) bar.sync 0;
GPGPU-Sim PTX:  2 (potential) branch divergence @  PC=0x198 (_1.ptx:112) @%p3 bra BB0_7;
GPGPU-Sim PTX:    immediate post dominator      @  PC=0x278 (_1.ptx:160) ld.shared.f32 %f17, [%rl8];
GPGPU-Sim PTX:  3 (potential) branch divergence @  PC=0x1e8 (_1.ptx:131) @%p4 bra BB0_6;
GPGPU-Sim PTX:    immediate post dominator      @  PC=0x250 (_1.ptx:150) bar.sync 0;
GPGPU-Sim PTX:  4 (potential) branch divergence @  PC=0x270 (_1.ptx:156) @%p5 bra BB0_4;
GPGPU-Sim PTX:    immediate post dominator      @  PC=0x278 (_1.ptx:160) ld.shared.f32 %f17, [%rl8];
GPGPU-Sim PTX:  5 (potential) branch divergence @  PC=0x290 (_1.ptx:165) @%p1 bra BB0_9;
GPGPU-Sim PTX:    immediate post dominator      @ 
GPGPU-Sim PTX: ... end of reconvergence points for _Z22bpnn_layerforward_CUDAPfS_S_S_ii
GPGPU-Sim PTX: ... done pre-decoding instructions for '_Z22bpnn_layerforward_CUDAPfS_S_S_ii'.
GPGPU-Sim PTX: instruction assembly for function '_Z24bpnn_adjust_weights_cudaPfiS_iS_S_'...   done.
GPGPU-Sim PTX: finding reconvergence points for '_Z24bpnn_adjust_weights_cudaPfiS_iS_S_'...
GPGPU-Sim PTX: Finding dominators for '_Z24bpnn_adjust_weights_cudaPfiS_iS_S_'...
GPGPU-Sim PTX: Finding immediate dominators for '_Z24bpnn_adjust_weights_cudaPfiS_iS_S_'...
GPGPU-Sim PTX: Finding postdominators for '_Z24bpnn_adjust_weights_cudaPfiS_iS_S_'...
GPGPU-Sim PTX: Finding immediate postdominators for '_Z24bpnn_adjust_weights_cudaPfiS_iS_S_'...
GPGPU-Sim PTX: pre-decoding instructions for '_Z24bpnn_adjust_weights_cudaPfiS_iS_S_'...
GPGPU-Sim PTX: reconvergence points for _Z24bpnn_adjust_weights_cudaPfiS_iS_S_...
GPGPU-Sim PTX:  1 (potential) branch divergence @  PC=0x508 (_1.ptx:289) @%p1 bra BB1_2;
GPGPU-Sim PTX:    immediate post dominator      @ 
GPGPU-Sim PTX: ... end of reconvergence points for _Z24bpnn_adjust_weights_cudaPfiS_iS_S_
GPGPU-Sim PTX: ... done pre-decoding instructions for '_Z24bpnn_adjust_weights_cudaPfiS_iS_S_'.
GPGPU-Sim PTX: finished parsing EMBEDDED .ptx file _1.ptx
Adding _cuobjdump_3.ptx with cubin handle 1
GPGPU-Sim PTX: extracting embedded .ptx to temporary file "_ptx_bDpN2N"
Running: cat _ptx_bDpN2N | sed 's/.version 1.5/.version 1.4/' | sed 's/, texmode_independent//' | sed 's/\(\.extern \.const\[1\] .b8 \w\+\)\[\]/\1\[1\]/' | sed 's/const\[.\]/const\[0\]/g' > _ptx2_T4sLni
GPGPU-Sim PTX: generating ptxinfo using "$CUDA_INSTALL_PATH/bin/ptxas --gpu-name=sm_20 -v _ptx2_T4sLni --output-file  /dev/null 2> _ptx_bDpN2Ninfo"
GPGPU-Sim PTX: Kernel '_Z22bpnn_layerforward_CUDAPfS_S_S_ii' : regs=10, lmem=0, smem=1088, cmem=72
GPGPU-Sim PTX: Kernel '_Z24bpnn_adjust_weights_cudaPfiS_iS_S_' : regs=18, lmem=0, smem=0, cmem=80
GPGPU-Sim PTX: removing ptxinfo using "rm -f _ptx_bDpN2N _ptx2_T4sLni _ptx_bDpN2Ninfo"
GPGPU-Sim PTX: loading globals with explicit initializers... 
GPGPU-Sim PTX: finished loading globals (0 bytes total).
GPGPU-Sim PTX: loading constants with explicit initializers...  done.
GPGPU-Sim PTX: __cudaRegisterFunction _Z22bpnn_layerforward_CUDAPfS_S_S_ii : hostFun 0x0x401fd0, fat_cubin_handle = 1
Random number generator seed: 7
Input layer size : 65536
Starting training kernel
Performing GPU computation

GPGPU-Sim PTX: cudaLaunch for 0x0x401fd0 (mode=performance simulation) on stream 0
GPGPU-Sim PTX: pushing kernel '_Z22bpnn_layerforward_CUDAPfS_S_S_ii' to stream 0, gridDim= (1,4096,1) blockDim = (16,16,1) 
kernel '_Z22bpnn_layerforward_CUDAPfS_S_S_ii' transfer to GPU hardware scheduler
GPGPU-Sim uArch: Shader 1 bind to kernel 1 '_Z22bpnn_layerforward_CUDAPfS_S_S_ii'
GPGPU-Sim uArch: CTA/core = 6, limited by: threads
GPGPU-Sim uArch: core:  1, cta: 0 initialized @(1,0)
GPGPU-Sim uArch: Shader 2 bind to kernel 1 '_Z22bpnn_layerforward_CUDAPfS_S_S_ii'
GPGPU-Sim uArch: core:  2, cta: 0 initialized @(1,0)
GPGPU-Sim uArch: Shader 3 bind to kernel 1 '_Z22bpnn_layerforward_CUDAPfS_S_S_ii'
GPGPU-Sim uArch: core:  3, cta: 0 initialized @(1,0)
GPGPU-Sim uArch: Shader 4 bind to kernel 1 '_Z22bpnn_layerforward_CUDAPfS_S_S_ii'
GPGPU-Sim uArch: core:  4, cta: 0 initialized @(1,0)
GPGPU-Sim uArch: Shader 5 bind to kernel 1 '_Z22bpnn_layerforward_CUDAPfS_S_S_ii'
GPGPU-Sim uArch: core:  5, cta: 0 initialized @(1,0)
GPGPU-Sim uArch: Shader 6 bind to kernel 1 '_Z22bpnn_layerforward_CUDAPfS_S_S_ii'
GPGPU-Sim uArch: core:  6, cta: 0 initialized @(1,0)
GPGPU-Sim uArch: Shader 7 bind to kernel 1 '_Z22bpnn_layerforward_CUDAPfS_S_S_ii'
GPGPU-Sim uArch: core:  7, cta: 0 initialized @(1,0)
GPGPU-Sim uArch: Shader 8 bind to kernel 1 '_Z22bpnn_layerforward_CUDAPfS_S_S_ii'
GPGPU-Sim uArch: core:  8, cta: 0 initialized @(1,0)
GPGPU-Sim uArch: Shader 9 bind to kernel 1 '_Z22bpnn_layerforward_CUDAPfS_S_S_ii'
GPGPU-Sim uArch: core:  9, cta: 0 initialized @(1,0)
GPGPU-Sim uArch: Shader 10 bind to kernel 1 '_Z22bpnn_layerforward_CUDAPfS_S_S_ii'
GPGPU-Sim uArch: core: 10, cta: 0 initialized @(1,0)
GPGPU-Sim uArch: Shader 11 bind to kernel 1 '_Z22bpnn_layerforward_CUDAPfS_S_S_ii'
GPGPU-Sim uArch: core: 11, cta: 0 initialized @(1,0)
GPGPU-Sim uArch: Shader 12 bind to kernel 1 '_Z22bpnn_layerforward_CUDAPfS_S_S_ii'
GPGPU-Sim uArch: core: 12, cta: 0 initialized @(1,0)
GPGPU-Sim uArch: Shader 13 bind to kernel 1 '_Z22bpnn_layerforward_CUDAPfS_S_S_ii'
GPGPU-Sim uArch: core: 13, cta: 0 initialized @(1,0)
GPGPU-Sim uArch: Shader 14 bind to kernel 1 '_Z22bpnn_layerforward_CUDAPfS_S_S_ii'
GPGPU-Sim uArch: core: 14, cta: 0 initialized @(1,0)
GPGPU-Sim uArch: Shader 0 bind to kernel 1 '_Z22bpnn_layerforward_CUDAPfS_S_S_ii'
GPGPU-Sim uArch: core:  0, cta: 0 initialized @(1,0)
GPGPU-Sim uArch: core:  1, cta: 1 initialized @(2,0)
GPGPU-Sim uArch: core:  2, cta: 1 initialized @(2,0)
GPGPU-Sim uArch: core:  3, cta: 1 initialized @(2,0)
GPGPU-Sim uArch: core:  4, cta: 1 initialized @(2,0)
GPGPU-Sim uArch: core:  5, cta: 1 initialized @(2,0)
GPGPU-Sim uArch: core:  6, cta: 1 initialized @(2,0)
GPGPU-Sim uArch: core:  7, cta: 1 initialized @(2,0)
GPGPU-Sim uArch: core:  8, cta: 1 initialized @(2,0)
GPGPU-Sim uArch: core:  9, cta: 1 initialized @(2,0)
GPGPU-Sim uArch: core: 10, cta: 1 initialized @(2,0)
GPGPU-Sim uArch: core: 11, cta: 1 initialized @(2,0)
GPGPU-Sim uArch: core: 12, cta: 1 initialized @(2,0)
GPGPU-Sim uArch: core: 13, cta: 1 initialized @(2,0)
GPGPU-Sim uArch: core: 14, cta: 1 initialized @(2,0)
GPGPU-Sim uArch: core:  0, cta: 1 initialized @(2,0)
GPGPU-Sim uArch: core:  1, cta: 2 initialized @(3,0)
GPGPU-Sim uArch: core:  2, cta: 2 initialized @(3,0)
GPGPU-Sim uArch: core:  3, cta: 2 initialized @(3,0)
GPGPU-Sim uArch: core:  4, cta: 2 initialized @(3,0)
GPGPU-Sim uArch: core:  5, cta: 2 initialized @(3,0)
GPGPU-Sim uArch: core:  6, cta: 2 initialized @(3,0)
GPGPU-Sim uArch: core:  7, cta: 2 initialized @(3,0)
GPGPU-Sim uArch: core:  8, cta: 2 initialized @(3,0)
GPGPU-Sim uArch: core:  9, cta: 2 initialized @(3,0)
GPGPU-Sim uArch: core: 10, cta: 2 initialized @(3,0)
GPGPU-Sim uArch: core: 11, cta: 2 initialized @(3,0)
GPGPU-Sim uArch: core: 12, cta: 2 initialized @(3,0)
GPGPU-Sim uArch: core: 13, cta: 2 initialized @(3,0)
GPGPU-Sim uArch: core: 14, cta: 2 initialized @(3,0)
GPGPU-Sim uArch: core:  0, cta: 2 initialized @(3,0)
GPGPU-Sim uArch: core:  1, cta: 3 initialized @(4,0)
GPGPU-Sim uArch: core:  2, cta: 3 initialized @(4,0)
GPGPU-Sim uArch: core:  3, cta: 3 initialized @(4,0)
GPGPU-Sim uArch: core:  4, cta: 3 initialized @(4,0)
GPGPU-Sim uArch: core:  5, cta: 3 initialized @(4,0)
GPGPU-Sim uArch: core:  6, cta: 3 initialized @(4,0)
GPGPU-Sim uArch: core:  7, cta: 3 initialized @(4,0)
GPGPU-Sim uArch: core:  8, cta: 3 initialized @(4,0)
GPGPU-Sim uArch: core:  9, cta: 3 initialized @(4,0)
GPGPU-Sim uArch: core: 10, cta: 3 initialized @(4,0)
GPGPU-Sim uArch: core: 11, cta: 3 initialized @(4,0)
GPGPU-Sim uArch: core: 12, cta: 3 initialized @(4,0)
GPGPU-Sim uArch: core: 13, cta: 3 initialized @(4,0)
GPGPU-Sim uArch: core: 14, cta: 3 initialized @(4,0)
GPGPU-Sim uArch: core:  0, cta: 3 initialized @(4,0)
GPGPU-Sim uArch: core:  1, cta: 4 initialized @(5,0)
GPGPU-Sim uArch: core:  2, cta: 4 initialized @(5,0)
GPGPU-Sim uArch: core:  3, cta: 4 initialized @(5,0)
GPGPU-Sim uArch: core:  4, cta: 4 initialized @(5,0)
GPGPU-Sim uArch: core:  5, cta: 4 initialized @(5,0)
GPGPU-Sim uArch: core:  6, cta: 4 initialized @(5,0)
GPGPU-Sim uArch: core:  7, cta: 4 initialized @(5,0)
GPGPU-Sim uArch: core:  8, cta: 4 initialized @(5,0)
GPGPU-Sim uArch: core:  9, cta: 4 initialized @(5,0)
GPGPU-Sim uArch: core: 10, cta: 4 initialized @(5,0)
GPGPU-Sim uArch: core: 11, cta: 4 initialized @(5,0)
GPGPU-Sim uArch: core: 12, cta: 4 initialized @(5,0)
GPGPU-Sim uArch: core: 13, cta: 4 initialized @(5,0)
GPGPU-Sim uArch: core: 14, cta: 4 initialized @(5,0)
GPGPU-Sim uArch: core:  0, cta: 4 initialized @(5,0)
GPGPU-Sim uArch: core:  1, cta: 5 initialized @(6,0)
GPGPU-Sim uArch: core:  2, cta: 5 initialized @(6,0)
GPGPU-Sim uArch: core:  3, cta: 5 initialized @(6,0)
GPGPU-Sim uArch: core:  4, cta: 5 initialized @(6,0)
GPGPU-Sim uArch: core:  5, cta: 5 initialized @(6,0)
GPGPU-Sim uArch: core:  6, cta: 5 initialized @(6,0)
GPGPU-Sim uArch: core:  7, cta: 5 initialized @(6,0)
GPGPU-Sim uArch: core:  8, cta: 5 initialized @(6,0)
GPGPU-Sim uArch: core:  9, cta: 5 initialized @(6,0)
GPGPU-Sim uArch: core: 10, cta: 5 initialized @(6,0)
GPGPU-Sim uArch: core: 11, cta: 5 initialized @(6,0)
GPGPU-Sim uArch: core: 12, cta: 5 initialized @(6,0)
GPGPU-Sim uArch: core: 13, cta: 5 initialized @(6,0)
GPGPU-Sim uArch: core: 14, cta: 5 initialized @(6,0)
GPGPU-Sim uArch: core:  0, cta: 5 initialized @(6,0)
GPGPU-Sim uArch: cycles simulated: 500  inst.: 0 (ipc= 0.0) sim_rate=0 (inst/sec) elapsed = 0:0:00:03 / Sun Feb  3 08:07:32 2019
GPGPU-Sim PTX: 100000 instructions simulated : ctaid=(0,17,0) tid=(15,7,0)
GPGPU-Sim PTX: 200000 instructions simulated : ctaid=(0,47,0) tid=(15,3,0)
GPGPU-Sim PTX: 300000 instructions simulated : ctaid=(0,76,0) tid=(15,9,0)
GPGPU-Sim uArch: cycles simulated: 1000  inst.: 354592 (ipc=354.6) sim_rate=70918 (inst/sec) elapsed = 0:0:00:05 / Sun Feb  3 08:07:34 2019
GPGPU-Sim PTX: 400000 instructions simulated : ctaid=(0,71,0) tid=(15,13,0)
GPGPU-Sim PTX: 500000 instructions simulated : ctaid=(0,78,0) tid=(5,5,0)
GPGPU-Sim uArch: cycles simulated: 1500  inst.: 551006 (ipc=367.3) sim_rate=91834 (inst/sec) elapsed = 0:0:00:06 / Sun Feb  3 08:07:35 2019
GPGPU-Sim PTX: 600000 instructions simulated : ctaid=(0,56,0) tid=(7,6,0)
GPGPU-Sim PTX: 700000 instructions simulated : ctaid=(0,88,0) tid=(15,1,0)
GPGPU-Sim uArch: cycles simulated: 2000  inst.: 783744 (ipc=391.9) sim_rate=97968 (inst/sec) elapsed = 0:0:00:08 / Sun Feb  3 08:07:37 2019
GPGPU-Sim PTX: 800000 instructions simulated : ctaid=(0,12,0) tid=(15,11,0)
GPGPU-Sim uArch: cycles simulated: 2500  inst.: 817824 (ipc=327.1) sim_rate=90869 (inst/sec) elapsed = 0:0:00:09 / Sun Feb  3 08:07:38 2019
GPGPU-Sim PTX: 900000 instructions simulated : ctaid=(0,2,0) tid=(15,15,0)
GPGPU-Sim uArch: cycles simulated: 3000  inst.: 952800 (ipc=317.6) sim_rate=59550 (inst/sec) elapsed = 0:0:00:16 / Sun Feb  3 08:07:45 2019
GPGPU-Sim PTX: 1000000 instructions simulated : ctaid=(0,55,0) tid=(15,13,0)
GPGPU-Sim PTX: 1100000 instructions simulated : ctaid=(0,43,0) tid=(15,13,0)
GPGPU-Sim uArch: cycles simulated: 3500  inst.: 1145296 (ipc=327.2) sim_rate=49795 (inst/sec) elapsed = 0:0:00:23 / Sun Feb  3 08:07:52 2019
GPGPU-Sim PTX: 1200000 instructions simulated : ctaid=(0,9,0) tid=(15,1,0)
GPGPU-Sim PTX: 1300000 instructions simulated : ctaid=(0,72,0) tid=(15,4,0)
GPGPU-Sim PTX: 1400000 instructions simulated : ctaid=(0,88,0) tid=(15,12,0)
GPGPU-Sim uArch: cycles simulated: 4000  inst.: 1391712 (ipc=347.9) sim_rate=44893 (inst/sec) elapsed = 0:0:00:31 / Sun Feb  3 08:08:00 2019
GPGPU-Sim PTX: 1500000 instructions simulated : ctaid=(0,0,0) tid=(15,6,0)
GPGPU-Sim PTX: 1600000 instructions simulated : ctaid=(0,4,0) tid=(15,13,0)
GPGPU-Sim PTX: 1700000 instructions simulated : ctaid=(0,21,0) tid=(15,6,0)
GPGPU-Sim uArch: cycles simulated: 4500  inst.: 1682864 (ipc=374.0) sim_rate=42071 (inst/sec) elapsed = 0:0:00:40 / Sun Feb  3 08:08:09 2019
GPGPU-Sim PTX: 1800000 instructions simulated : ctaid=(0,10,0) tid=(15,3,0)
GPGPU-Sim PTX: 1900000 instructions simulated : ctaid=(0,77,0) tid=(15,2,0)
GPGPU-Sim PTX: 2000000 instructions simulated : ctaid=(0,32,0) tid=(15,11,0)
GPGPU-Sim uArch: cycles simulated: 5000  inst.: 1988696 (ipc=397.7) sim_rate=40585 (inst/sec) elapsed = 0:0:00:49 / Sun Feb  3 08:08:18 2019
GPGPU-Sim PTX: 2100000 instructions simulated : ctaid=(0,39,0) tid=(15,9,0)
GPGPU-Sim PTX: 2200000 instructions simulated : ctaid=(0,38,0) tid=(11,7,0)
GPGPU-Sim uArch: Shader 0 finished CTA #0 (5485,0), 5 CTAs running
GPGPU-Sim uArch: core:  0, cta: 0 initialized @(5486,0)
GPGPU-Sim PTX: 2300000 instructions simulated : ctaid=(0,38,0) tid=(7,3,0)
GPGPU-Sim uArch: cycles simulated: 5500  inst.: 2232698 (ipc=405.9) sim_rate=38494 (inst/sec) elapsed = 0:0:00:58 / Sun Feb  3 08:08:27 2019
GPGPU-Sim uArch: Shader 9 finished CTA #0 (5517,0), 5 CTAs running
GPGPU-Sim uArch: Shader 9 finished CTA #1 (5517,0), 4 CTAs running
GPGPU-Sim uArch: core:  9, cta: 0 initialized @(5518,0)
GPGPU-Sim uArch: core:  9, cta: 1 initialized @(5519,0)
GPGPU-Sim uArch: Shader 0 finished CTA #1 (5526,0), 5 CTAs running
GPGPU-Sim uArch: core:  0, cta: 1 initialized @(5527,0)
GPGPU-Sim uArch: Shader 1 finished CTA #1 (5541,0), 5 CTAs running
GPGPU-Sim uArch: core:  1, cta: 1 initialized @(5542,0)
GPGPU-Sim uArch: Shader 10 finished CTA #1 (5582,0), 5 CTAs running
GPGPU-Sim uArch: core: 10, cta: 1 initialized @(5583,0)
GPGPU-Sim uArch: Shader 10 finished CTA #2 (5614,0), 5 CTAs running
GPGPU-Sim uArch: core: 10, cta: 2 initialized @(5615,0)
GPGPU-Sim uArch: Shader 7 finished CTA #0 (5644,0), 5 CTAs running
GPGPU-Sim uArch: core:  7, cta: 0 initialized @(5645,0)
GPGPU-Sim uArch: Shader 12 finished CTA #0 (5649,0), 5 CTAs running
GPGPU-Sim uArch: core: 12, cta: 0 initialized @(5650,0)
GPGPU-Sim uArch: Shader 2 finished CTA #1 (5651,0), 5 CTAs running
GPGPU-Sim uArch: Shader 6 finished CTA #0 (5651,0), 5 CTAs running
GPGPU-Sim uArch: core:  2, cta: 1 initialized @(5652,0)
GPGPU-Sim uArch: core:  6, cta: 0 initialized @(5652,0)
GPGPU-Sim uArch: Shader 10 finished CTA #0 (5655,0), 5 CTAs running
GPGPU-Sim uArch: core: 10, cta: 0 initialized @(5656,0)
GPGPU-Sim uArch: Shader 1 finished CTA #0 (5658,0), 5 CTAs running
GPGPU-Sim uArch: core:  1, cta: 0 initialized @(5659,0)
GPGPU-Sim uArch: Shader 5 finished CTA #1 (5659,0), 5 CTAs running
GPGPU-Sim uArch: core:  5, cta: 1 initialized @(5660,0)
GPGPU-Sim uArch: Shader 6 finished CTA #1 (5670,0), 5 CTAs running
GPGPU-Sim uArch: core:  6, cta: 1 initialized @(5671,0)
GPGPU-Sim uArch: Shader 7 finished CTA #1 (5674,0), 5 CTAs running
GPGPU-Sim uArch: core:  7, cta: 1 initialized @(5675,0)
GPGPU-Sim uArch: Shader 2 finished CTA #0 (5680,0), 5 CTAs running
GPGPU-Sim uArch: Shader 2 finished CTA #2 (5680,0), 4 CTAs running
GPGPU-Sim uArch: core:  2, cta: 0 initialized @(5681,0)
GPGPU-Sim uArch: Shader 5 finished CTA #0 (5681,0), 5 CTAs running
GPGPU-Sim uArch: core:  5, cta: 0 initialized @(5682,0)
GPGPU-Sim uArch: core:  2, cta: 2 initialized @(5682,0)
GPGPU-Sim uArch: Shader 12 finished CTA #1 (5684,0), 5 CTAs running
GPGPU-Sim uArch: core: 12, cta: 1 initialized @(5685,0)
GPGPU-Sim PTX: 2400000 instructions simulated : ctaid=(0,92,0) tid=(7,7,0)
GPGPU-Sim uArch: Shader 5 finished CTA #2 (5763,0), 5 CTAs running
GPGPU-Sim uArch: core:  5, cta: 2 initialized @(5764,0)
GPGPU-Sim uArch: Shader 6 finished CTA #2 (5795,0), 5 CTAs running
GPGPU-Sim uArch: core:  6, cta: 2 initialized @(5796,0)
GPGPU-Sim uArch: Shader 0 finished CTA #2 (5800,0), 5 CTAs running
GPGPU-Sim uArch: core:  0, cta: 2 initialized @(5801,0)
GPGPU-Sim uArch: Shader 4 finished CTA #0 (5803,0), 5 CTAs running
GPGPU-Sim uArch: Shader 4 finished CTA #1 (5803,0), 4 CTAs running
GPGPU-Sim uArch: core:  4, cta: 0 initialized @(5804,0)
GPGPU-Sim uArch: core:  4, cta: 1 initialized @(5805,0)
GPGPU-Sim uArch: Shader 3 finished CTA #0 (5812,0), 5 CTAs running
GPGPU-Sim uArch: core:  3, cta: 0 initialized @(5813,0)
GPGPU-Sim uArch: Shader 7 finished CTA #2 (5850,0), 5 CTAs running
GPGPU-Sim uArch: core:  7, cta: 2 initialized @(5851,0)
GPGPU-Sim uArch: Shader 9 finished CTA #2 (5854,0), 5 CTAs running
GPGPU-Sim uArch: core:  9, cta: 2 initialized @(5855,0)
GPGPU-Sim uArch: Shader 1 finished CTA #2 (5861,0), 5 CTAs running
GPGPU-Sim PTX: 2500000 instructions simulated : ctaid=(0,56,0) tid=(5,0,0)
GPGPU-Sim uArch: core:  1, cta: 2 initialized @(5862,0)
GPGPU-Sim uArch: Shader 8 finished CTA #0 (5870,0), 5 CTAs running
GPGPU-Sim uArch: core:  8, cta: 0 initialized @(5871,0)
GPGPU-Sim uArch: Shader 11 finished CTA #0 (5891,0), 5 CTAs running
GPGPU-Sim uArch: core: 11, cta: 0 initialized @(5892,0)
GPGPU-Sim uArch: Shader 8 finished CTA #1 (5895,0), 5 CTAs running
GPGPU-Sim uArch: core:  8, cta: 1 initialized @(5896,0)
GPGPU-Sim uArch: Shader 4 finished CTA #2 (5912,0), 5 CTAs running
GPGPU-Sim uArch: core:  4, cta: 2 initialized @(5913,0)
GPGPU-Sim uArch: Shader 8 finished CTA #2 (5922,0), 5 CTAs running
GPGPU-Sim uArch: core:  8, cta: 2 initialized @(5923,0)
GPGPU-Sim uArch: Shader 3 finished CTA #1 (5924,0), 5 CTAs running
GPGPU-Sim uArch: core:  3, cta: 1 initialized @(5925,0)
GPGPU-Sim uArch: Shader 11 finished CTA #1 (5925,0), 5 CTAs running
GPGPU-Sim uArch: core: 11, cta: 1 initialized @(5926,0)
GPGPU-Sim uArch: Shader 3 finished CTA #2 (5953,0), 5 CTAs running
GPGPU-Sim uArch: core:  3, cta: 2 initialized @(5954,0)
GPGPU-Sim uArch: Shader 5 finished CTA #3 (5956,0), 5 CTAs running
GPGPU-Sim uArch: core:  5, cta: 3 initialized @(5957,0)
GPGPU-Sim uArch: Shader 14 finished CTA #0 (5979,0), 5 CTAs running
GPGPU-Sim uArch: core: 14, cta: 0 initialized @(5980,0)
GPGPU-Sim uArch: Shader 14 finished CTA #1 (5988,0), 5 CTAs running
GPGPU-Sim uArch: core: 14, cta: 1 initialized @(5989,0)
GPGPU-Sim uArch: cycles simulated: 6000  inst.: 2505044 (ipc=417.5) sim_rate=36838 (inst/sec) elapsed = 0:0:01:08 / Sun Feb  3 08:08:37 2019
GPGPU-Sim uArch: Shader 13 finished CTA #1 (6001,0), 5 CTAs running
GPGPU-Sim uArch: core: 13, cta: 1 initialized @(6002,0)
GPGPU-Sim uArch: Shader 12 finished CTA #2 (6007,0), 5 CTAs running
GPGPU-Sim uArch: core: 12, cta: 2 initialized @(6008,0)
GPGPU-Sim PTX: 2600000 instructions simulated : ctaid=(0,78,0) tid=(15,11,0)
GPGPU-Sim uArch: Shader 11 finished CTA #2 (6019,0), 5 CTAs running
GPGPU-Sim uArch: Shader 13 finished CTA #0 (6019,0), 5 CTAs running
GPGPU-Sim uArch: core: 13, cta: 0 initialized @(6020,0)
GPGPU-Sim uArch: core: 11, cta: 2 initialized @(6020,0)
GPGPU-Sim uArch: Shader 7 finished CTA #3 (6100,0), 5 CTAs running
GPGPU-Sim uArch: Shader 10 finished CTA #3 (6100,0), 5 CTAs running
GPGPU-Sim uArch: core:  7, cta: 3 initialized @(6101,0)
GPGPU-Sim uArch: core: 10, cta: 3 initialized @(6101,0)
GPGPU-Sim uArch: Shader 6 finished CTA #3 (6113,0), 5 CTAs running
GPGPU-Sim uArch: core:  6, cta: 3 initialized @(6114,0)
GPGPU-Sim uArch: Shader 13 finished CTA #2 (6150,0), 5 CTAs running
GPGPU-Sim uArch: core: 13, cta: 2 initialized @(6151,0)
GPGPU-Sim PTX: 2700000 instructions simulated : ctaid=(0,95,0) tid=(13,8,0)
GPGPU-Sim uArch: Shader 3 finished CTA #3 (6192,0), 5 CTAs running
GPGPU-Sim uArch: core:  3, cta: 3 initialized @(6193,0)
GPGPU-Sim uArch: Shader 2 finished CTA #3 (6205,0), 5 CTAs running
GPGPU-Sim uArch: core:  2, cta: 3 initialized @(6206,0)
GPGPU-Sim uArch: Shader 1 finished CTA #3 (6215,0), 5 CTAs running
GPGPU-Sim uArch: core:  1, cta: 3 initialized @(6216,0)
GPGPU-Sim uArch: Shader 0 finished CTA #3 (6273,0), 5 CTAs running
GPGPU-Sim uArch: core:  0, cta: 3 initialized @(6274,0)
GPGPU-Sim uArch: Shader 14 finished CTA #2 (6318,0), 5 CTAs running
GPGPU-Sim uArch: core: 14, cta: 2 initialized @(6319,0)
GPGPU-Sim PTX: 2800000 instructions simulated : ctaid=(0,112,0) tid=(11,8,0)
GPGPU-Sim uArch: Shader 4 finished CTA #3 (6364,0), 5 CTAs running
GPGPU-Sim uArch: core:  4, cta: 3 initialized @(6365,0)
GPGPU-Sim uArch: Shader 8 finished CTA #3 (6367,0), 5 CTAs running
GPGPU-Sim uArch: core:  8, cta: 3 initialized @(6368,0)
GPGPU-Sim uArch: Shader 9 finished CTA #3 (6368,0), 5 CTAs running
GPGPU-Sim uArch: core:  9, cta: 3 initialized @(6369,0)
GPGPU-Sim uArch: Shader 11 finished CTA #3 (6380,0), 5 CTAs running
GPGPU-Sim uArch: core: 11, cta: 3 initialized @(6381,0)
GPGPU-Sim uArch: Shader 13 finished CTA #3 (6384,0), 5 CTAs running
GPGPU-Sim uArch: core: 13, cta: 3 initialized @(6385,0)
GPGPU-Sim uArch: Shader 12 finished CTA #3 (6402,0), 5 CTAs running
GPGPU-Sim uArch: core: 12, cta: 3 initialized @(6403,0)
GPGPU-Sim PTX: 2900000 instructions simulated : ctaid=(0,126,0) tid=(5,10,0)
GPGPU-Sim uArch: Shader 14 finished CTA #3 (6480,0), 5 CTAs running
GPGPU-Sim uArch: core: 14, cta: 3 initialized @(6481,0)
GPGPU-Sim uArch: cycles simulated: 6500  inst.: 2821202 (ipc=434.0) sim_rate=35711 (inst/sec) elapsed = 0:0:01:19 / Sun Feb  3 08:08:48 2019
GPGPU-Sim uArch: Shader 4 finished CTA #4 (6514,0), 5 CTAs running
GPGPU-Sim uArch: core:  4, cta: 4 initialized @(6515,0)
GPGPU-Sim uArch: Shader 3 finished CTA #4 (6544,0), 5 CTAs running
GPGPU-Sim uArch: core:  3, cta: 4 initialized @(6545,0)
GPGPU-Sim uArch: Shader 5 finished CTA #4 (6551,0), 5 CTAs running
GPGPU-Sim uArch: Shader 10 finished CTA #4 (6551,0), 5 CTAs running
GPGPU-Sim uArch: core:  5, cta: 4 initialized @(6552,0)
GPGPU-Sim uArch: core: 10, cta: 4 initialized @(6552,0)
GPGPU-Sim uArch: Shader 6 finished CTA #4 (6579,0), 5 CTAs running
GPGPU-Sim uArch: core:  6, cta: 4 initialized @(6580,0)
GPGPU-Sim uArch: Shader 9 finished CTA #4 (6582,0), 5 CTAs running
GPGPU-Sim uArch: core:  9, cta: 4 initialized @(6583,0)
GPGPU-Sim PTX: 3000000 instructions simulated : ctaid=(0,70,0) tid=(14,0,0)
GPGPU-Sim uArch: Shader 0 finished CTA #4 (6736,0), 5 CTAs running
GPGPU-Sim uArch: core:  0, cta: 4 initialized @(6737,0)
GPGPU-Sim uArch: Shader 1 finished CTA #4 (6752,0), 5 CTAs running
GPGPU-Sim uArch: core:  1, cta: 4 initialized @(6753,0)
GPGPU-Sim uArch: Shader 7 finished CTA #4 (6759,0), 5 CTAs running
GPGPU-Sim uArch: core:  7, cta: 4 initialized @(6760,0)
GPGPU-Sim uArch: Shader 2 finished CTA #4 (6772,0), 5 CTAs running
GPGPU-Sim uArch: core:  2, cta: 4 initialized @(6773,0)
GPGPU-Sim PTX: 3100000 instructions simulated : ctaid=(0,153,0) tid=(1,3,0)
GPGPU-Sim uArch: Shader 6 finished CTA #5 (6873,0), 5 CTAs running
GPGPU-Sim uArch: Shader 11 finished CTA #4 (6873,0), 5 CTAs running
GPGPU-Sim uArch: core:  6, cta: 5 initialized @(6874,0)
GPGPU-Sim uArch: core: 11, cta: 4 initialized @(6874,0)
GPGPU-Sim uArch: Shader 13 finished CTA #4 (6893,0), 5 CTAs running
GPGPU-Sim uArch: core: 13, cta: 4 initialized @(6894,0)
GPGPU-Sim uArch: Shader 8 finished CTA #4 (6902,0), 5 CTAs running
GPGPU-Sim uArch: core:  8, cta: 4 initialized @(6903,0)
GPGPU-Sim uArch: Shader 12 finished CTA #4 (6930,0), 5 CTAs running
GPGPU-Sim uArch: core: 12, cta: 4 initialized @(6931,0)
GPGPU-Sim uArch: Shader 5 finished CTA #5 (6994,0), 5 CTAs running
GPGPU-Sim uArch: core:  5, cta: 5 initialized @(6995,0)
GPGPU-Sim uArch: cycles simulated: 7000  inst.: 3090314 (ipc=441.5) sim_rate=35117 (inst/sec) elapsed = 0:0:01:28 / Sun Feb  3 08:08:57 2019
GPGPU-Sim uArch: Shader 0 finished CTA #5 (7002,0), 5 CTAs running
GPGPU-Sim uArch: core:  0, cta: 5 initialized @(7003,0)
GPGPU-Sim PTX: 3200000 instructions simulated : ctaid=(0,122,0) tid=(15,0,0)
GPGPU-Sim uArch: Shader 9 finished CTA #5 (7102,0), 5 CTAs running
GPGPU-Sim uArch: core:  9, cta: 5 initialized @(7103,0)
GPGPU-Sim uArch: Shader 1 finished CTA #5 (7106,0), 5 CTAs running
GPGPU-Sim uArch: core:  1, cta: 5 initialized @(7107,0)
GPGPU-Sim uArch: Shader 14 finished CTA #4 (7108,0), 5 CTAs running
GPGPU-Sim uArch: core: 14, cta: 4 initialized @(7109,0)
GPGPU-Sim uArch: Shader 10 finished CTA #5 (7129,0), 5 CTAs running
GPGPU-Sim uArch: core: 10, cta: 5 initialized @(7130,0)
GPGPU-Sim uArch: Shader 2 finished CTA #5 (7237,0), 5 CTAs running
GPGPU-Sim uArch: core:  2, cta: 5 initialized @(7238,0)
GPGPU-Sim PTX: 3300000 instructions simulated : ctaid=(0,90,0) tid=(13,1,0)
GPGPU-Sim uArch: Shader 7 finished CTA #5 (7351,0), 5 CTAs running
GPGPU-Sim uArch: core:  7, cta: 5 initialized @(7352,0)
GPGPU-Sim uArch: Shader 12 finished CTA #5 (7382,0), 5 CTAs running
GPGPU-Sim uArch: core: 12, cta: 5 initialized @(7383,0)
GPGPU-Sim uArch: Shader 13 finished CTA #5 (7387,0), 5 CTAs running
GPGPU-Sim uArch: core: 13, cta: 5 initialized @(7388,0)
GPGPU-Sim uArch: Shader 4 finished CTA #5 (7405,0), 5 CTAs running
GPGPU-Sim uArch: core:  4, cta: 5 initialized @(7406,0)
GPGPU-Sim uArch: Shader 3 finished CTA #5 (7411,0), 5 CTAs running
GPGPU-Sim uArch: core:  3, cta: 5 initialized @(7412,0)
GPGPU-Sim PTX: 3400000 instructions simulated : ctaid=(0,142,0) tid=(9,5,0)
GPGPU-Sim uArch: Shader 8 finished CTA #5 (7427,0), 5 CTAs running
GPGPU-Sim uArch: core:  8, cta: 5 initialized @(7428,0)
GPGPU-Sim uArch: cycles simulated: 7500  inst.: 3334146 (ipc=444.6) sim_rate=34730 (inst/sec) elapsed = 0:0:01:36 / Sun Feb  3 08:09:05 2019
GPGPU-Sim uArch: Shader 14 finished CTA #5 (7558,0), 5 CTAs running
GPGPU-Sim uArch: core: 14, cta: 5 initialized @(7559,0)
GPGPU-Sim PTX: 3500000 instructions simulated : ctaid=(0,101,0) tid=(13,13,0)
GPGPU-Sim uArch: Shader 11 finished CTA #5 (7601,0), 5 CTAs running
GPGPU-Sim uArch: core: 11, cta: 5 initialized @(7602,0)
GPGPU-Sim PTX: 3600000 instructions simulated : ctaid=(0,93,0) tid=(5,12,0)
GPGPU-Sim PTX: 3700000 instructions simulated : ctaid=(0,119,0) tid=(7,0,0)
GPGPU-Sim uArch: cycles simulated: 8000  inst.: 3646396 (ipc=455.8) sim_rate=35061 (inst/sec) elapsed = 0:0:01:44 / Sun Feb  3 08:09:13 2019
GPGPU-Sim PTX: 3800000 instructions simulated : ctaid=(0,117,0) tid=(11,2,0)
GPGPU-Sim PTX: 3900000 instructions simulated : ctaid=(0,110,0) tid=(3,9,0)
GPGPU-Sim PTX: 4000000 instructions simulated : ctaid=(0,119,0) tid=(11,4,0)
GPGPU-Sim uArch: cycles simulated: 8500  inst.: 3926142 (ipc=461.9) sim_rate=34744 (inst/sec) elapsed = 0:0:01:53 / Sun Feb  3 08:09:22 2019
GPGPU-Sim PTX: 4100000 instructions simulated : ctaid=(0,104,0) tid=(1,6,0)
GPGPU-Sim uArch: Shader 1 finished CTA #1 (8568,0), 5 CTAs running
GPGPU-Sim uArch: core:  1, cta: 1 initialized @(8569,0)
GPGPU-Sim uArch: Shader 0 finished CTA #0 (8655,0), 5 CTAs running
GPGPU-Sim uArch: core:  0, cta: 0 initialized @(8656,0)
GPGPU-Sim uArch: Shader 10 finished CTA #1 (8707,0), 5 CTAs running
GPGPU-Sim uArch: core: 10, cta: 1 initialized @(8708,0)
GPGPU-Sim PTX: 4200000 instructions simulated : ctaid=(0,167,0) tid=(1,5,0)
GPGPU-Sim uArch: Shader 7 finished CTA #0 (8795,0), 5 CTAs running
GPGPU-Sim uArch: core:  7, cta: 0 initialized @(8796,0)
GPGPU-Sim uArch: Shader 9 finished CTA #0 (8799,0), 5 CTAs running
GPGPU-Sim uArch: core:  9, cta: 0 initialized @(8800,0)
GPGPU-Sim uArch: Shader 6 finished CTA #0 (8812,0), 5 CTAs running
GPGPU-Sim uArch: core:  6, cta: 0 initialized @(8813,0)
GPGPU-Sim PTX: 4300000 instructions simulated : ctaid=(0,128,0) tid=(9,9,0)
GPGPU-Sim uArch: Shader 12 finished CTA #0 (8969,0), 5 CTAs running
GPGPU-Sim uArch: core: 12, cta: 0 initialized @(8970,0)
GPGPU-Sim uArch: Shader 5 finished CTA #1 (8998,0), 5 CTAs running
GPGPU-Sim uArch: core:  5, cta: 1 initialized @(8999,0)
GPGPU-Sim uArch: cycles simulated: 9000  inst.: 4237214 (ipc=470.8) sim_rate=35018 (inst/sec) elapsed = 0:0:02:01 / Sun Feb  3 08:09:30 2019
GPGPU-Sim uArch: Shader 10 finished CTA #2 (9003,0), 5 CTAs running
GPGPU-Sim uArch: core: 10, cta: 2 initialized @(9004,0)
GPGPU-Sim PTX: 4400000 instructions simulated : ctaid=(0,186,0) tid=(11,11,0)
GPGPU-Sim uArch: Shader 2 finished CTA #1 (9118,0), 5 CTAs running
GPGPU-Sim uArch: core:  2, cta: 1 initialized @(9119,0)
GPGPU-Sim PTX: 4500000 instructions simulated : ctaid=(0,141,0) tid=(15,13,0)
GPGPU-Sim uArch: Shader 6 finished CTA #1 (9236,0), 5 CTAs running
GPGPU-Sim uArch: core:  6, cta: 1 initialized @(9237,0)
GPGPU-Sim uArch: Shader 9 finished CTA #1 (9255,0), 5 CTAs running
GPGPU-Sim uArch: core:  9, cta: 1 initialized @(9256,0)
GPGPU-Sim uArch: Shader 3 finished CTA #0 (9256,0), 5 CTAs running
GPGPU-Sim uArch: core:  3, cta: 0 initialized @(9257,0)
GPGPU-Sim uArch: Shader 0 finished CTA #1 (9271,0), 5 CTAs running
GPGPU-Sim uArch: core:  0, cta: 1 initialized @(9272,0)
GPGPU-Sim uArch: Shader 12 finished CTA #1 (9303,0), 5 CTAs running
GPGPU-Sim uArch: core: 12, cta: 1 initialized @(9304,0)
GPGPU-Sim PTX: 4600000 instructions simulated : ctaid=(0,120,0) tid=(3,11,0)
GPGPU-Sim uArch: Shader 1 finished CTA #0 (9376,0), 5 CTAs running
GPGPU-Sim uArch: core:  1, cta: 0 initialized @(9377,0)
GPGPU-Sim uArch: Shader 5 finished CTA #0 (9393,0), 5 CTAs running
GPGPU-Sim uArch: core:  5, cta: 0 initialized @(9394,0)
GPGPU-Sim PTX: 4700000 instructions simulated : ctaid=(0,173,0) tid=(9,11,0)
GPGPU-Sim uArch: cycles simulated: 9500  inst.: 4557294 (ipc=479.7) sim_rate=35056 (inst/sec) elapsed = 0:0:02:10 / Sun Feb  3 08:09:39 2019
GPGPU-Sim uArch: Shader 9 finished CTA #2 (9517,0), 5 CTAs running
GPGPU-Sim uArch: core:  9, cta: 2 initialized @(9518,0)
GPGPU-Sim uArch: Shader 4 finished CTA #0 (9561,0), 5 CTAs running
GPGPU-Sim uArch: core:  4, cta: 0 initialized @(9562,0)
GPGPU-Sim uArch: Shader 7 finished CTA #1 (9590,0), 5 CTAs running
GPGPU-Sim uArch: core:  7, cta: 1 initialized @(9591,0)
GPGPU-Sim uArch: Shader 2 finished CTA #0 (9601,0), 5 CTAs running
GPGPU-Sim uArch: Shader 14 finished CTA #0 (9601,0), 5 CTAs running
GPGPU-Sim uArch: core: 14, cta: 0 initialized @(9602,0)
GPGPU-Sim uArch: core:  2, cta: 0 initialized @(9602,0)
GPGPU-Sim uArch: Shader 10 finished CTA #0 (9603,0), 5 CTAs running
GPGPU-Sim uArch: core: 10, cta: 0 initialized @(9604,0)
GPGPU-Sim PTX: 4800000 instructions simulated : ctaid=(0,139,0) tid=(11,3,0)
GPGPU-Sim uArch: Shader 8 finished CTA #0 (9682,0), 5 CTAs running
GPGPU-Sim uArch: core:  8, cta: 0 initialized @(9683,0)
GPGPU-Sim uArch: Shader 0 finished CTA #2 (9684,0), 5 CTAs running
GPGPU-Sim uArch: core:  0, cta: 2 initialized @(9685,0)
GPGPU-Sim uArch: Shader 13 finished CTA #1 (9773,0), 5 CTAs running
GPGPU-Sim uArch: core: 13, cta: 1 initialized @(9774,0)
GPGPU-Sim uArch: Shader 14 finished CTA #1 (9804,0), 5 CTAs running
GPGPU-Sim uArch: core: 14, cta: 1 initialized @(9805,0)
GPGPU-Sim PTX: 4900000 instructions simulated : ctaid=(0,126,0) tid=(9,3,0)
GPGPU-Sim uArch: Shader 3 finished CTA #1 (9852,0), 5 CTAs running
GPGPU-Sim uArch: core:  3, cta: 1 initialized @(9853,0)
GPGPU-Sim uArch: Shader 1 finished CTA #2 (9890,0), 5 CTAs running
GPGPU-Sim uArch: core:  1, cta: 2 initialized @(9891,0)
GPGPU-Sim uArch: Shader 11 finished CTA #0 (9909,0), 5 CTAs running
GPGPU-Sim uArch: core: 11, cta: 0 initialized @(9910,0)
GPGPU-Sim uArch: Shader 2 finished CTA #2 (9910,0), 5 CTAs running
GPGPU-Sim uArch: core:  2, cta: 2 initialized @(9911,0)
GPGPU-Sim uArch: Shader 5 finished CTA #2 (9926,0), 5 CTAs running
GPGPU-Sim uArch: core:  5, cta: 2 initialized @(9927,0)
GPGPU-Sim uArch: Shader 4 finished CTA #1 (9933,0), 5 CTAs running
GPGPU-Sim uArch: core:  4, cta: 1 initialized @(9934,0)
GPGPU-Sim uArch: Shader 8 finished CTA #1 (9936,0), 5 CTAs running
GPGPU-Sim uArch: Shader 12 finished CTA #2 (9936,0), 5 CTAs running
GPGPU-Sim uArch: core:  8, cta: 1 initialized @(9937,0)
GPGPU-Sim uArch: core: 12, cta: 2 initialized @(9937,0)
GPGPU-Sim uArch: Shader 6 finished CTA #2 (9938,0), 5 CTAs running
GPGPU-Sim uArch: core:  6, cta: 2 initialized @(9939,0)
GPGPU-Sim PTX: 5000000 instructions simulated : ctaid=(0,151,0) tid=(3,7,0)
GPGPU-Sim uArch: cycles simulated: 10000  inst.: 4859942 (ipc=486.0) sim_rate=34963 (inst/sec) elapsed = 0:0:02:19 / Sun Feb  3 08:09:48 2019
GPGPU-Sim uArch: Shader 11 finished CTA #1 (10041,0), 5 CTAs running
GPGPU-Sim uArch: core: 11, cta: 1 initialized @(10042,0)
GPGPU-Sim uArch: Shader 13 finished CTA #0 (10075,0), 5 CTAs running
GPGPU-Sim uArch: core: 13, cta: 0 initialized @(10076,0)
GPGPU-Sim PTX: 5100000 instructions simulated : ctaid=(0,161,0) tid=(7,9,0)
GPGPU-Sim uArch: Shader 1 finished CTA #3 (10149,0), 5 CTAs running
GPGPU-Sim uArch: core:  1, cta: 3 initialized @(10150,0)
GPGPU-Sim uArch: Shader 7 finished CTA #2 (10203,0), 5 CTAs running
GPGPU-Sim uArch: core:  7, cta: 2 initialized @(10204,0)
GPGPU-Sim PTX: 5200000 instructions simulated : ctaid=(0,212,0) tid=(15,7,0)
GPGPU-Sim uArch: Shader 4 finished CTA #2 (10285,0), 5 CTAs running
GPGPU-Sim uArch: core:  4, cta: 2 initialized @(10286,0)
GPGPU-Sim uArch: Shader 0 finished CTA #3 (10310,0), 5 CTAs running
GPGPU-Sim uArch: core:  0, cta: 3 initialized @(10311,0)
GPGPU-Sim uArch: Shader 8 finished CTA #2 (10319,0), 5 CTAs running
GPGPU-Sim uArch: core:  8, cta: 2 initialized @(10320,0)
GPGPU-Sim uArch: Shader 9 finished CTA #3 (10329,0), 5 CTAs running
GPGPU-Sim uArch: core:  9, cta: 3 initialized @(10330,0)
GPGPU-Sim uArch: Shader 12 finished CTA #3 (10367,0), 5 CTAs running
GPGPU-Sim uArch: core: 12, cta: 3 initialized @(10368,0)
GPGPU-Sim uArch: Shader 5 finished CTA #3 (10376,0), 5 CTAs running
GPGPU-Sim uArch: core:  5, cta: 3 initialized @(10377,0)
GPGPU-Sim uArch: Shader 3 finished CTA #2 (10380,0), 5 CTAs running
GPGPU-Sim uArch: core:  3, cta: 2 initialized @(10381,0)
GPGPU-Sim PTX: 5300000 instructions simulated : ctaid=(0,192,0) tid=(9,0,0)
GPGPU-Sim uArch: Shader 14 finished CTA #2 (10457,0), 5 CTAs running
GPGPU-Sim uArch: core: 14, cta: 2 initialized @(10458,0)
GPGPU-Sim uArch: Shader 6 finished CTA #3 (10470,0), 5 CTAs running
GPGPU-Sim uArch: core:  6, cta: 3 initialized @(10471,0)
GPGPU-Sim uArch: Shader 2 finished CTA #3 (10486,0), 5 CTAs running
GPGPU-Sim uArch: core:  2, cta: 3 initialized @(10487,0)
GPGPU-Sim uArch: Shader 10 finished CTA #3 (10487,0), 5 CTAs running
GPGPU-Sim uArch: core: 10, cta: 3 initialized @(10488,0)
GPGPU-Sim uArch: cycles simulated: 10500  inst.: 5181388 (ipc=493.5) sim_rate=35981 (inst/sec) elapsed = 0:0:02:24 / Sun Feb  3 08:09:53 2019
GPGPU-Sim uArch: Shader 11 finished CTA #2 (10507,0), 5 CTAs running
GPGPU-Sim uArch: core: 11, cta: 2 initialized @(10508,0)
GPGPU-Sim PTX: 5400000 instructions simulated : ctaid=(0,191,0) tid=(13,11,0)
GPGPU-Sim uArch: Shader 13 finished CTA #2 (10609,0), 5 CTAs running
GPGPU-Sim uArch: core: 13, cta: 2 initialized @(10610,0)
GPGPU-Sim uArch: Shader 7 finished CTA #3 (10620,0), 5 CTAs running
GPGPU-Sim uArch: core:  7, cta: 3 initialized @(10621,0)
GPGPU-Sim uArch: Shader 3 finished CTA #3 (10672,0), 5 CTAs running
GPGPU-Sim uArch: core:  3, cta: 3 initialized @(10673,0)
GPGPU-Sim PTX: 5500000 instructions simulated : ctaid=(0,165,0) tid=(11,3,0)
GPGPU-Sim uArch: Shader 10 finished CTA #4 (10733,0), 5 CTAs running
GPGPU-Sim uArch: core: 10, cta: 4 initialized @(10734,0)
GPGPU-Sim PTX: 5600000 instructions simulated : ctaid=(0,172,0) tid=(5,0,0)
GPGPU-Sim uArch: Shader 6 finished CTA #4 (10938,0), 5 CTAs running
GPGPU-Sim uArch: core:  6, cta: 4 initialized @(10939,0)
GPGPU-Sim uArch: Shader 0 finished CTA #4 (10974,0), 5 CTAs running
GPGPU-Sim uArch: core:  0, cta: 4 initialized @(10975,0)
GPGPU-Sim uArch: Shader 7 finished CTA #4 (10980,0), 5 CTAs running
GPGPU-Sim uArch: core:  7, cta: 4 initialized @(10981,0)
GPGPU-Sim uArch: Shader 2 finished CTA #4 (10985,0), 5 CTAs running
GPGPU-Sim uArch: core:  2, cta: 4 initialized @(10986,0)
GPGPU-Sim uArch: cycles simulated: 11000  inst.: 5475824 (ipc=497.8) sim_rate=37505 (inst/sec) elapsed = 0:0:02:26 / Sun Feb  3 08:09:55 2019
GPGPU-Sim uArch: Shader 13 finished CTA #3 (11048,0), 5 CTAs running
GPGPU-Sim uArch: core: 13, cta: 3 initialized @(11049,0)
GPGPU-Sim uArch: Shader 11 finished CTA #3 (11059,0), 5 CTAs running
GPGPU-Sim uArch: core: 11, cta: 3 initialized @(11060,0)
GPGPU-Sim PTX: 5700000 instructions simulated : ctaid=(0,173,0) tid=(9,13,0)
GPGPU-Sim uArch: Shader 1 finished CTA #4 (11126,0), 5 CTAs running
GPGPU-Sim uArch: core:  1, cta: 4 initialized @(11127,0)
GPGPU-Sim uArch: Shader 5 finished CTA #4 (11140,0), 5 CTAs running
GPGPU-Sim uArch: core:  5, cta: 4 initialized @(11141,0)
GPGPU-Sim uArch: Shader 9 finished CTA #4 (11145,0), 5 CTAs running
GPGPU-Sim uArch: core:  9, cta: 4 initialized @(11146,0)
GPGPU-Sim uArch: Shader 4 finished CTA #3 (11196,0), 5 CTAs running
GPGPU-Sim uArch: core:  4, cta: 3 initialized @(11197,0)
GPGPU-Sim uArch: Shader 8 finished CTA #3 (11213,0), 5 CTAs running
GPGPU-Sim uArch: core:  8, cta: 3 initialized @(11214,0)
GPGPU-Sim PTX: 5800000 instructions simulated : ctaid=(0,174,0) tid=(1,13,0)
GPGPU-Sim uArch: Shader 14 finished CTA #3 (11245,0), 5 CTAs running
GPGPU-Sim uArch: core: 14, cta: 3 initialized @(11246,0)
GPGPU-Sim uArch: Shader 12 finished CTA #4 (11317,0), 5 CTAs running
GPGPU-Sim uArch: core: 12, cta: 4 initialized @(11318,0)
GPGPU-Sim uArch: Shader 13 finished CTA #4 (11342,0), 5 CTAs running
GPGPU-Sim uArch: core: 13, cta: 4 initialized @(11343,0)
GPGPU-Sim PTX: 5900000 instructions simulated : ctaid=(0,208,0) tid=(3,3,0)
GPGPU-Sim uArch: Shader 5 finished CTA #5 (11428,0), 5 CTAs running
GPGPU-Sim uArch: core:  5, cta: 5 initialized @(11429,0)
GPGPU-Sim uArch: cycles simulated: 11500  inst.: 5771656 (ipc=501.9) sim_rate=38997 (inst/sec) elapsed = 0:0:02:28 / Sun Feb  3 08:09:57 2019
GPGPU-Sim uArch: Shader 1 finished CTA #5 (11507,0), 5 CTAs running
GPGPU-Sim uArch: core:  1, cta: 5 initialized @(11508,0)
GPGPU-Sim uArch: Shader 3 finished CTA #4 (11519,0), 5 CTAs running
GPGPU-Sim uArch: core:  3, cta: 4 initialized @(11520,0)
GPGPU-Sim uArch: Shader 4 finished CTA #4 (11537,0), 5 CTAs running
GPGPU-Sim uArch: core:  4, cta: 4 initialized @(11538,0)
GPGPU-Sim PTX: 6000000 instructions simulated : ctaid=(0,184,0) tid=(15,3,0)
GPGPU-Sim uArch: Shader 6 finished CTA #5 (11593,0), 5 CTAs running
GPGPU-Sim uArch: core:  6, cta: 5 initialized @(11594,0)
GPGPU-Sim uArch: Shader 9 finished CTA #5 (11616,0), 5 CTAs running
GPGPU-Sim uArch: core:  9, cta: 5 initialized @(11617,0)
GPGPU-Sim uArch: Shader 8 finished CTA #4 (11672,0), 5 CTAs running
GPGPU-Sim uArch: core:  8, cta: 4 initialized @(11673,0)
GPGPU-Sim uArch: Shader 7 finished CTA #5 (11689,0), 5 CTAs running
GPGPU-Sim uArch: core:  7, cta: 5 initialized @(11690,0)
GPGPU-Sim uArch: Shader 12 finished CTA #5 (11696,0), 5 CTAs running
GPGPU-Sim uArch: core: 12, cta: 5 initialized @(11697,0)
GPGPU-Sim PTX: 6100000 instructions simulated : ctaid=(0,209,0) tid=(9,2,0)
GPGPU-Sim uArch: Shader 11 finished CTA #4 (11719,0), 5 CTAs running
GPGPU-Sim uArch: core: 11, cta: 4 initialized @(11720,0)
GPGPU-Sim uArch: Shader 3 finished CTA #5 (11742,0), 5 CTAs running
GPGPU-Sim uArch: core:  3, cta: 5 initialized @(11743,0)
GPGPU-Sim uArch: Shader 0 finished CTA #5 (11750,0), 5 CTAs running
GPGPU-Sim uArch: core:  0, cta: 5 initialized @(11751,0)
GPGPU-Sim uArch: Shader 10 finished CTA #5 (11768,0), 5 CTAs running
GPGPU-Sim uArch: core: 10, cta: 5 initialized @(11769,0)
GPGPU-Sim uArch: Shader 14 finished CTA #4 (11792,0), 5 CTAs running
GPGPU-Sim uArch: core: 14, cta: 4 initialized @(11793,0)
GPGPU-Sim PTX: 6200000 instructions simulated : ctaid=(0,183,0) tid=(13,0,0)
GPGPU-Sim uArch: Shader 8 finished CTA #5 (11920,0), 5 CTAs running
GPGPU-Sim uArch: core:  8, cta: 5 initialized @(11921,0)
GPGPU-Sim uArch: Shader 2 finished CTA #5 (11940,0), 5 CTAs running
GPGPU-Sim uArch: core:  2, cta: 5 initialized @(11941,0)
GPGPU-Sim uArch: Shader 13 finished CTA #5 (11982,0), 5 CTAs running
GPGPU-Sim uArch: core: 13, cta: 5 initialized @(11983,0)
GPGPU-Sim PTX: 6300000 instructions simulated : ctaid=(0,266,0) tid=(11,15,0)
GPGPU-Sim uArch: cycles simulated: 12000  inst.: 6093220 (ipc=507.8) sim_rate=40621 (inst/sec) elapsed = 0:0:02:30 / Sun Feb  3 08:09:59 2019
GPGPU-Sim uArch: Shader 4 finished CTA #5 (12002,0), 5 CTAs running
GPGPU-Sim uArch: core:  4, cta: 5 initialized @(12003,0)
GPGPU-Sim PTX: 6400000 instructions simulated : ctaid=(0,232,0) tid=(3,3,0)
GPGPU-Sim PTX: 6500000 instructions simulated : ctaid=(0,247,0) tid=(7,9,0)
GPGPU-Sim uArch: Shader 0 finished CTA #0 (12319,0), 5 CTAs running
GPGPU-Sim uArch: core:  0, cta: 0 initialized @(12320,0)
GPGPU-Sim uArch: Shader 11 finished CTA #5 (12421,0), 5 CTAs running
GPGPU-Sim uArch: core: 11, cta: 5 initialized @(12422,0)
GPGPU-Sim PTX: 6600000 instructions simulated : ctaid=(0,196,0) tid=(1,13,0)
GPGPU-Sim uArch: cycles simulated: 12500  inst.: 6399380 (ipc=512.0) sim_rate=42101 (inst/sec) elapsed = 0:0:02:32 / Sun Feb  3 08:10:01 2019
GPGPU-Sim PTX: 6700000 instructions simulated : ctaid=(0,252,0) tid=(13,4,0)
GPGPU-Sim uArch: Shader 14 finished CTA #5 (12649,0), 5 CTAs running
GPGPU-Sim uArch: core: 14, cta: 5 initialized @(12650,0)
GPGPU-Sim uArch: Shader 6 finished CTA #0 (12669,0), 5 CTAs running
GPGPU-Sim uArch: core:  6, cta: 0 initialized @(12670,0)
GPGPU-Sim uArch: Shader 7 finished CTA #0 (12671,0), 5 CTAs running
GPGPU-Sim uArch: core:  7, cta: 0 initialized @(12672,0)
GPGPU-Sim uArch: Shader 9 finished CTA #0 (12681,0), 5 CTAs running
GPGPU-Sim uArch: core:  9, cta: 0 initialized @(12682,0)
GPGPU-Sim uArch: Shader 10 finished CTA #1 (12700,0), 5 CTAs running
GPGPU-Sim uArch: core: 10, cta: 1 initialized @(12701,0)
GPGPU-Sim uArch: Shader 1 finished CTA #1 (12701,0), 5 CTAs running
GPGPU-Sim uArch: core:  1, cta: 1 initialized @(12702,0)
GPGPU-Sim uArch: Shader 12 finished CTA #0 (12726,0), 5 CTAs running
GPGPU-Sim uArch: core: 12, cta: 0 initialized @(12727,0)
GPGPU-Sim uArch: Shader 5 finished CTA #1 (12782,0), 5 CTAs running
GPGPU-Sim uArch: core:  5, cta: 1 initialized @(12783,0)
GPGPU-Sim PTX: 6800000 instructions simulated : ctaid=(0,207,0) tid=(1,7,0)
GPGPU-Sim uArch: Shader 6 finished CTA #1 (12866,0), 5 CTAs running
GPGPU-Sim uArch: core:  6, cta: 1 initialized @(12867,0)
GPGPU-Sim uArch: Shader 3 finished CTA #0 (12927,0), 5 CTAs running
GPGPU-Sim uArch: core:  3, cta: 0 initialized @(12928,0)
GPGPU-Sim PTX: 6900000 instructions simulated : ctaid=(0,230,0) tid=(13,2,0)
GPGPU-Sim uArch: cycles simulated: 13000  inst.: 6717874 (ipc=516.8) sim_rate=43622 (inst/sec) elapsed = 0:0:02:34 / Sun Feb  3 08:10:03 2019
GPGPU-Sim uArch: Shader 5 finished CTA #0 (13023,0), 5 CTAs running
GPGPU-Sim uArch: core:  5, cta: 0 initialized @(13024,0)
GPGPU-Sim uArch: Shader 2 finished CTA #1 (13033,0), 5 CTAs running
GPGPU-Sim uArch: core:  2, cta: 1 initialized @(13034,0)
GPGPU-Sim uArch: Shader 10 finished CTA #2 (13050,0), 5 CTAs running
GPGPU-Sim uArch: core: 10, cta: 2 initialized @(13051,0)
GPGPU-Sim uArch: Shader 12 finished CTA #1 (13063,0), 5 CTAs running
GPGPU-Sim uArch: core: 12, cta: 1 initialized @(13064,0)
GPGPU-Sim PTX: 7000000 instructions simulated : ctaid=(0,232,0) tid=(7,0,0)
GPGPU-Sim uArch: Shader 0 finished CTA #1 (13171,0), 5 CTAs running
GPGPU-Sim uArch: core:  0, cta: 1 initialized @(13172,0)
GPGPU-Sim uArch: Shader 2 finished CTA #0 (13198,0), 5 CTAs running
GPGPU-Sim uArch: core:  2, cta: 0 initialized @(13199,0)
GPGPU-Sim uArch: Shader 1 finished CTA #0 (13208,0), 5 CTAs running
GPGPU-Sim uArch: core:  1, cta: 0 initialized @(13209,0)
GPGPU-Sim PTX: 7100000 instructions simulated : ctaid=(0,219,0) tid=(13,3,0)
GPGPU-Sim uArch: Shader 7 finished CTA #1 (13280,0), 5 CTAs running
GPGPU-Sim uArch: core:  7, cta: 1 initialized @(13281,0)
GPGPU-Sim uArch: Shader 4 finished CTA #0 (13368,0), 5 CTAs running
GPGPU-Sim uArch: core:  4, cta: 0 initialized @(13369,0)
GPGPU-Sim PTX: 7200000 instructions simulated : ctaid=(0,211,0) tid=(11,12,0)
GPGPU-Sim uArch: Shader 13 finished CTA #1 (13433,0), 5 CTAs running
GPGPU-Sim uArch: core: 13, cta: 1 initialized @(13434,0)
GPGPU-Sim uArch: Shader 9 finished CTA #1 (13458,0), 5 CTAs running
GPGPU-Sim uArch: core:  9, cta: 1 initialized @(13459,0)
GPGPU-Sim uArch: Shader 11 finished CTA #0 (13461,0), 5 CTAs running
GPGPU-Sim uArch: core: 11, cta: 0 initialized @(13462,0)
GPGPU-Sim uArch: cycles simulated: 13500  inst.: 7022656 (ipc=520.2) sim_rate=45017 (inst/sec) elapsed = 0:0:02:36 / Sun Feb  3 08:10:05 2019
GPGPU-Sim uArch: Shader 8 finished CTA #0 (13511,0), 5 CTAs running
GPGPU-Sim uArch: core:  8, cta: 0 initialized @(13512,0)
GPGPU-Sim uArch: Shader 10 finished CTA #0 (13522,0), 5 CTAs running
GPGPU-Sim uArch: core: 10, cta: 0 initialized @(13523,0)
GPGPU-Sim PTX: 7300000 instructions simulated : ctaid=(0,242,0) tid=(5,4,0)
GPGPU-Sim uArch: Shader 3 finished CTA #1 (13583,0), 5 CTAs running
GPGPU-Sim uArch: core:  3, cta: 1 initialized @(13584,0)
GPGPU-Sim uArch: Shader 6 finished CTA #2 (13612,0), 5 CTAs running
GPGPU-Sim uArch: core:  6, cta: 2 initialized @(13613,0)
GPGPU-Sim uArch: Shader 0 finished CTA #2 (13618,0), 5 CTAs running
GPGPU-Sim uArch: core:  0, cta: 2 initialized @(13619,0)
GPGPU-Sim uArch: Shader 14 finished CTA #0 (13633,0), 5 CTAs running
GPGPU-Sim uArch: core: 14, cta: 0 initialized @(13634,0)
GPGPU-Sim PTX: 7400000 instructions simulated : ctaid=(0,236,0) tid=(5,14,0)
GPGPU-Sim uArch: Shader 11 finished CTA #1 (13763,0), 5 CTAs running
GPGPU-Sim uArch: core: 11, cta: 1 initialized @(13764,0)
GPGPU-Sim uArch: Shader 13 finished CTA #0 (13767,0), 5 CTAs running
GPGPU-Sim uArch: core: 13, cta: 0 initialized @(13768,0)
GPGPU-Sim uArch: Shader 2 finished CTA #2 (13788,0), 5 CTAs running
GPGPU-Sim uArch: core:  2, cta: 2 initialized @(13789,0)
GPGPU-Sim uArch: Shader 9 finished CTA #2 (13827,0), 5 CTAs running
GPGPU-Sim uArch: core:  9, cta: 2 initialized @(13828,0)
GPGPU-Sim uArch: Shader 1 finished CTA #2 (13852,0), 5 CTAs running
GPGPU-Sim uArch: core:  1, cta: 2 initialized @(13853,0)
GPGPU-Sim PTX: 7500000 instructions simulated : ctaid=(0,255,0) tid=(13,10,0)
GPGPU-Sim uArch: Shader 8 finished CTA #1 (13899,0), 5 CTAs running
GPGPU-Sim uArch: core:  8, cta: 1 initialized @(13900,0)
GPGPU-Sim uArch: Shader 12 finished CTA #2 (13902,0), 5 CTAs running
GPGPU-Sim uArch: core: 12, cta: 2 initialized @(13903,0)
GPGPU-Sim uArch: Shader 5 finished CTA #2 (13999,0), 5 CTAs running
GPGPU-Sim uArch: core:  5, cta: 2 initialized @(14000,0)
GPGPU-Sim uArch: cycles simulated: 14000  inst.: 7335324 (ipc=524.0) sim_rate=46426 (inst/sec) elapsed = 0:0:02:38 / Sun Feb  3 08:10:07 2019
GPGPU-Sim uArch: Shader 8 finished CTA #2 (14008,0), 5 CTAs running
GPGPU-Sim uArch: core:  8, cta: 2 initialized @(14009,0)
GPGPU-Sim PTX: 7600000 instructions simulated : ctaid=(0,294,0) tid=(15,2,0)
GPGPU-Sim uArch: Shader 4 finished CTA #1 (14055,0), 5 CTAs running
GPGPU-Sim uArch: core:  4, cta: 1 initialized @(14056,0)
GPGPU-Sim uArch: Shader 7 finished CTA #2 (14072,0), 5 CTAs running
GPGPU-Sim uArch: core:  7, cta: 2 initialized @(14073,0)
GPGPU-Sim uArch: Shader 14 finished CTA #1 (14093,0), 5 CTAs running
GPGPU-Sim uArch: core: 14, cta: 1 initialized @(14094,0)
GPGPU-Sim uArch: Shader 1 finished CTA #3 (14121,0), 5 CTAs running
GPGPU-Sim uArch: core:  1, cta: 3 initialized @(14122,0)
GPGPU-Sim uArch: Shader 6 finished CTA #3 (14158,0), 5 CTAs running
GPGPU-Sim uArch: core:  6, cta: 3 initialized @(14159,0)
GPGPU-Sim PTX: 7700000 instructions simulated : ctaid=(0,252,0) tid=(11,4,0)
GPGPU-Sim uArch: Shader 3 finished CTA #2 (14202,0), 5 CTAs running
GPGPU-Sim uArch: core:  3, cta: 2 initialized @(14203,0)
GPGPU-Sim PTX: 7800000 instructions simulated : ctaid=(0,251,0) tid=(3,3,0)
GPGPU-Sim uArch: Shader 4 finished CTA #2 (14382,0), 5 CTAs running
GPGPU-Sim uArch: core:  4, cta: 2 initialized @(14383,0)
GPGPU-Sim uArch: Shader 10 finished CTA #3 (14437,0), 5 CTAs running
GPGPU-Sim uArch: core: 10, cta: 3 initialized @(14438,0)
GPGPU-Sim PTX: 7900000 instructions simulated : ctaid=(0,274,0) tid=(1,7,0)
GPGPU-Sim uArch: Shader 11 finished CTA #2 (14465,0), 5 CTAs running
GPGPU-Sim uArch: core: 11, cta: 2 initialized @(14466,0)
GPGPU-Sim uArch: Shader 12 finished CTA #3 (14466,0), 5 CTAs running
GPGPU-Sim uArch: core: 12, cta: 3 initialized @(14467,0)
GPGPU-Sim uArch: Shader 2 finished CTA #3 (14484,0), 5 CTAs running
GPGPU-Sim uArch: Shader 9 finished CTA #3 (14484,0), 5 CTAs running
GPGPU-Sim uArch: core:  2, cta: 3 initialized @(14485,0)
GPGPU-Sim uArch: core:  9, cta: 3 initialized @(14485,0)
GPGPU-Sim uArch: Shader 0 finished CTA #3 (14492,0), 5 CTAs running
GPGPU-Sim uArch: core:  0, cta: 3 initialized @(14493,0)
GPGPU-Sim uArch: Shader 5 finished CTA #3 (14495,0), 5 CTAs running
GPGPU-Sim uArch: core:  5, cta: 3 initialized @(14496,0)
GPGPU-Sim uArch: cycles simulated: 14500  inst.: 7658382 (ipc=528.2) sim_rate=47864 (inst/sec) elapsed = 0:0:02:40 / Sun Feb  3 08:10:09 2019
GPGPU-Sim uArch: Shader 13 finished CTA #2 (14514,0), 5 CTAs running
GPGPU-Sim uArch: core: 13, cta: 2 initialized @(14515,0)
GPGPU-Sim uArch: Shader 7 finished CTA #3 (14523,0), 5 CTAs running
GPGPU-Sim uArch: core:  7, cta: 3 initialized @(14524,0)
GPGPU-Sim PTX: 8000000 instructions simulated : ctaid=(0,317,0) tid=(13,10,0)
GPGPU-Sim uArch: Shader 14 finished CTA #2 (14677,0), 5 CTAs running
GPGPU-Sim uArch: core: 14, cta: 2 initialized @(14678,0)
GPGPU-Sim PTX: 8100000 instructions simulated : ctaid=(0,297,0) tid=(7,12,0)
GPGPU-Sim uArch: Shader 3 finished CTA #3 (14847,0), 5 CTAs running
GPGPU-Sim uArch: core:  3, cta: 3 initialized @(14848,0)
GPGPU-Sim uArch: Shader 13 finished CTA #3 (14854,0), 5 CTAs running
GPGPU-Sim uArch: core: 13, cta: 3 initialized @(14855,0)
GPGPU-Sim PTX: 8200000 instructions simulated : ctaid=(0,281,0) tid=(15,11,0)
GPGPU-Sim uArch: Shader 10 finished CTA #4 (14920,0), 5 CTAs running
GPGPU-Sim uArch: core: 10, cta: 4 initialized @(14921,0)
GPGPU-Sim uArch: Shader 8 finished CTA #3 (14960,0), 5 CTAs running
GPGPU-Sim uArch: core:  8, cta: 3 initialized @(14961,0)
GPGPU-Sim uArch: cycles simulated: 15000  inst.: 7973504 (ipc=531.6) sim_rate=49219 (inst/sec) elapsed = 0:0:02:42 / Sun Feb  3 08:10:11 2019
GPGPU-Sim uArch: Shader 6 finished CTA #4 (15042,0), 5 CTAs running
GPGPU-Sim uArch: core:  6, cta: 4 initialized @(15043,0)
GPGPU-Sim PTX: 8300000 instructions simulated : ctaid=(0,298,0) tid=(7,11,0)
GPGPU-Sim uArch: Shader 4 finished CTA #3 (15150,0), 5 CTAs running
GPGPU-Sim uArch: core:  4, cta: 3 initialized @(15151,0)
GPGPU-Sim uArch: Shader 5 finished CTA #4 (15163,0), 5 CTAs running
GPGPU-Sim uArch: core:  5, cta: 4 initialized @(15164,0)
GPGPU-Sim uArch: Shader 7 finished CTA #4 (15183,0), 5 CTAs running
GPGPU-Sim uArch: core:  7, cta: 4 initialized @(15184,0)
GPGPU-Sim uArch: Shader 2 finished CTA #4 (15222,0), 5 CTAs running
GPGPU-Sim uArch: core:  2, cta: 4 initialized @(15223,0)
GPGPU-Sim PTX: 8400000 instructions simulated : ctaid=(0,264,0) tid=(11,5,0)
GPGPU-Sim uArch: Shader 1 finished CTA #4 (15234,0), 5 CTAs running
GPGPU-Sim uArch: core:  1, cta: 4 initialized @(15235,0)
GPGPU-Sim uArch: Shader 12 finished CTA #4 (15259,0), 5 CTAs running
GPGPU-Sim uArch: core: 12, cta: 4 initialized @(15260,0)
GPGPU-Sim uArch: Shader 9 finished CTA #4 (15265,0), 5 CTAs running
GPGPU-Sim uArch: core:  9, cta: 4 initialized @(15266,0)
GPGPU-Sim uArch: Shader 11 finished CTA #3 (15276,0), 5 CTAs running
GPGPU-Sim uArch: core: 11, cta: 3 initialized @(15277,0)
GPGPU-Sim uArch: Shader 0 finished CTA #4 (15299,0), 5 CTAs running
GPGPU-Sim uArch: core:  0, cta: 4 initialized @(15300,0)
GPGPU-Sim PTX: 8500000 instructions simulated : ctaid=(0,292,0) tid=(7,3,0)
GPGPU-Sim uArch: Shader 13 finished CTA #4 (15437,0), 5 CTAs running
GPGPU-Sim uArch: core: 13, cta: 4 initialized @(15438,0)
GPGPU-Sim uArch: Shader 3 finished CTA #4 (15448,0), 5 CTAs running
GPGPU-Sim uArch: core:  3, cta: 4 initialized @(15449,0)
GPGPU-Sim uArch: Shader 14 finished CTA #3 (15484,0), 5 CTAs running
GPGPU-Sim uArch: core: 14, cta: 3 initialized @(15485,0)
GPGPU-Sim uArch: cycles simulated: 15500  inst.: 8292572 (ipc=535.0) sim_rate=50564 (inst/sec) elapsed = 0:0:02:44 / Sun Feb  3 08:10:13 2019
GPGPU-Sim PTX: 8600000 instructions simulated : ctaid=(0,337,0) tid=(1,4,0)
GPGPU-Sim uArch: Shader 5 finished CTA #5 (15599,0), 5 CTAs running
GPGPU-Sim uArch: core:  5, cta: 5 initialized @(15600,0)
GPGPU-Sim uArch: Shader 9 finished CTA #5 (15618,0), 5 CTAs running
GPGPU-Sim uArch: core:  9, cta: 5 initialized @(15619,0)
GPGPU-Sim uArch: Shader 6 finished CTA #5 (15621,0), 5 CTAs running
GPGPU-Sim uArch: core:  6, cta: 5 initialized @(15622,0)
GPGPU-Sim PTX: 8700000 instructions simulated : ctaid=(0,276,0) tid=(13,12,0)
GPGPU-Sim uArch: Shader 4 finished CTA #4 (15734,0), 5 CTAs running
GPGPU-Sim uArch: core:  4, cta: 4 initialized @(15735,0)
GPGPU-Sim uArch: Shader 0 finished CTA #5 (15735,0), 5 CTAs running
GPGPU-Sim uArch: core:  0, cta: 5 initialized @(15736,0)
GPGPU-Sim uArch: Shader 12 finished CTA #5 (15803,0), 5 CTAs running
GPGPU-Sim uArch: core: 12, cta: 5 initialized @(15804,0)
GPGPU-Sim PTX: 8800000 instructions simulated : ctaid=(0,311,0) tid=(7,12,0)
GPGPU-Sim uArch: Shader 10 finished CTA #5 (15922,0), 5 CTAs running
GPGPU-Sim uArch: core: 10, cta: 5 initialized @(15923,0)
GPGPU-Sim uArch: Shader 11 finished CTA #4 (15981,0), 5 CTAs running
GPGPU-Sim uArch: core: 11, cta: 4 initialized @(15982,0)
GPGPU-Sim uArch: Shader 7 finished CTA #5 (15996,0), 5 CTAs running
GPGPU-Sim uArch: Shader 8 finished CTA #4 (15996,0), 5 CTAs running
GPGPU-Sim uArch: core:  7, cta: 5 initialized @(15997,0)
GPGPU-Sim uArch: core:  8, cta: 4 initialized @(15997,0)
GPGPU-Sim uArch: cycles simulated: 16000  inst.: 8600626 (ipc=537.5) sim_rate=51811 (inst/sec) elapsed = 0:0:02:46 / Sun Feb  3 08:10:15 2019
GPGPU-Sim PTX: 8900000 instructions simulated : ctaid=(0,289,0) tid=(1,15,0)
GPGPU-Sim uArch: Shader 14 finished CTA #4 (16094,0), 5 CTAs running
GPGPU-Sim uArch: core: 14, cta: 4 initialized @(16095,0)
GPGPU-Sim uArch: Shader 1 finished CTA #5 (16124,0), 5 CTAs running
GPGPU-Sim uArch: core:  1, cta: 5 initialized @(16125,0)
GPGPU-Sim PTX: 9000000 instructions simulated : ctaid=(0,284,0) tid=(13,6,0)
GPGPU-Sim uArch: Shader 3 finished CTA #5 (16175,0), 5 CTAs running
GPGPU-Sim uArch: core:  3, cta: 5 initialized @(16176,0)
GPGPU-Sim uArch: Shader 8 finished CTA #5 (16177,0), 5 CTAs running
GPGPU-Sim uArch: core:  8, cta: 5 initialized @(16178,0)
GPGPU-Sim PTX: 9100000 instructions simulated : ctaid=(0,311,0) tid=(9,12,0)
GPGPU-Sim uArch: Shader 4 finished CTA #5 (16341,0), 5 CTAs running
GPGPU-Sim uArch: core:  4, cta: 5 initialized @(16342,0)
GPGPU-Sim uArch: Shader 11 finished CTA #5 (16343,0), 5 CTAs running
GPGPU-Sim uArch: core: 11, cta: 5 initialized @(16344,0)
GPGPU-Sim uArch: Shader 2 finished CTA #5 (16345,0), 5 CTAs running
GPGPU-Sim uArch: core:  2, cta: 5 initialized @(16346,0)
GPGPU-Sim uArch: Shader 13 finished CTA #5 (16470,0), 5 CTAs running
GPGPU-Sim uArch: core: 13, cta: 5 initialized @(16471,0)
GPGPU-Sim PTX: 9200000 instructions simulated : ctaid=(0,289,0) tid=(13,3,0)
GPGPU-Sim uArch: Shader 10 finished CTA #1 (16479,0), 5 CTAs running
GPGPU-Sim uArch: core: 10, cta: 1 initialized @(16480,0)
GPGPU-Sim uArch: Shader 0 finished CTA #0 (16491,0), 5 CTAs running
GPGPU-Sim uArch: core:  0, cta: 0 initialized @(16492,0)
GPGPU-Sim uArch: cycles simulated: 16500  inst.: 8905824 (ipc=539.7) sim_rate=53010 (inst/sec) elapsed = 0:0:02:48 / Sun Feb  3 08:10:17 2019
GPGPU-Sim uArch: Shader 9 finished CTA #0 (16609,0), 5 CTAs running
GPGPU-Sim uArch: core:  9, cta: 0 initialized @(16610,0)
GPGPU-Sim uArch: Shader 12 finished CTA #0 (16618,0), 5 CTAs running
GPGPU-Sim uArch: core: 12, cta: 0 initialized @(16619,0)
GPGPU-Sim PTX: 9300000 instructions simulated : ctaid=(0,340,0) tid=(11,10,0)
GPGPU-Sim uArch: Shader 6 finished CTA #0 (16650,0), 5 CTAs running
GPGPU-Sim uArch: core:  6, cta: 0 initialized @(16651,0)
GPGPU-Sim uArch: Shader 1 finished CTA #1 (16725,0), 5 CTAs running
GPGPU-Sim uArch: core:  1, cta: 1 initialized @(16726,0)
GPGPU-Sim uArch: Shader 14 finished CTA #5 (16791,0), 5 CTAs running
GPGPU-Sim uArch: core: 14, cta: 5 initialized @(16792,0)
GPGPU-Sim PTX: 9400000 instructions simulated : ctaid=(0,304,0) tid=(5,4,0)
GPGPU-Sim uArch: Shader 3 finished CTA #0 (16906,0), 5 CTAs running
GPGPU-Sim uArch: core:  3, cta: 0 initialized @(16907,0)
GPGPU-Sim uArch: Shader 7 finished CTA #0 (16913,0), 5 CTAs running
GPGPU-Sim uArch: core:  7, cta: 0 initialized @(16914,0)
GPGPU-Sim uArch: Shader 5 finished CTA #1 (16948,0), 5 CTAs running
GPGPU-Sim uArch: core:  5, cta: 1 initialized @(16949,0)
GPGPU-Sim uArch: Shader 10 finished CTA #2 (16959,0), 5 CTAs running
GPGPU-Sim uArch: core: 10, cta: 2 initialized @(16960,0)
GPGPU-Sim PTX: 9500000 instructions simulated : ctaid=(0,314,0) tid=(3,8,0)
GPGPU-Sim uArch: cycles simulated: 17000  inst.: 9199692 (ipc=541.2) sim_rate=54115 (inst/sec) elapsed = 0:0:02:50 / Sun Feb  3 08:10:19 2019
GPGPU-Sim uArch: Shader 6 finished CTA #1 (17024,0), 5 CTAs running
GPGPU-Sim uArch: core:  6, cta: 1 initialized @(17025,0)
GPGPU-Sim uArch: Shader 5 finished CTA #0 (17043,0), 5 CTAs running
GPGPU-Sim uArch: core:  5, cta: 0 initialized @(17044,0)
GPGPU-Sim uArch: Shader 2 finished CTA #1 (17056,0), 5 CTAs running
GPGPU-Sim uArch: core:  2, cta: 1 initialized @(17057,0)
GPGPU-Sim PTX: 9600000 instructions simulated : ctaid=(0,305,0) tid=(11,1,0)
GPGPU-Sim uArch: Shader 12 finished CTA #1 (17149,0), 5 CTAs running
GPGPU-Sim uArch: core: 12, cta: 1 initialized @(17150,0)
GPGPU-Sim uArch: Shader 7 finished CTA #1 (17155,0), 5 CTAs running
GPGPU-Sim uArch: core:  7, cta: 1 initialized @(17156,0)
GPGPU-Sim uArch: Shader 2 finished CTA #0 (17285,0), 5 CTAs running
GPGPU-Sim PTX: 9700000 instructions simulated : ctaid=(0,307,0) tid=(7,15,0)
GPGPU-Sim uArch: core:  2, cta: 0 initialized @(17286,0)
GPGPU-Sim uArch: Shader 0 finished CTA #1 (17299,0), 5 CTAs running
GPGPU-Sim uArch: core:  0, cta: 1 initialized @(17300,0)
GPGPU-Sim uArch: Shader 4 finished CTA #0 (17310,0), 5 CTAs running
GPGPU-Sim uArch: core:  4, cta: 0 initialized @(17311,0)
GPGPU-Sim uArch: Shader 11 finished CTA #0 (17378,0), 5 CTAs running
GPGPU-Sim uArch: core: 11, cta: 0 initialized @(17379,0)
GPGPU-Sim PTX: 9800000 instructions simulated : ctaid=(0,330,0) tid=(15,0,0)
GPGPU-Sim uArch: Shader 1 finished CTA #0 (17449,0), 5 CTAs running
GPGPU-Sim uArch: core:  1, cta: 0 initialized @(17450,0)
GPGPU-Sim uArch: cycles simulated: 17500  inst.: 9506584 (ipc=543.2) sim_rate=55270 (inst/sec) elapsed = 0:0:02:52 / Sun Feb  3 08:10:21 2019
GPGPU-Sim uArch: Shader 13 finished CTA #1 (17520,0), 5 CTAs running
GPGPU-Sim uArch: core: 13, cta: 1 initialized @(17521,0)
GPGPU-Sim uArch: Shader 9 finished CTA #1 (17524,0), 5 CTAs running
GPGPU-Sim uArch: core:  9, cta: 1 initialized @(17525,0)
GPGPU-Sim uArch: Shader 3 finished CTA #1 (17531,0), 5 CTAs running
GPGPU-Sim uArch: core:  3, cta: 1 initialized @(17532,0)
GPGPU-Sim uArch: Shader 14 finished CTA #0 (17598,0), 5 CTAs running
GPGPU-Sim uArch: core: 14, cta: 0 initialized @(17599,0)
GPGPU-Sim PTX: 9900000 instructions simulated : ctaid=(0,377,0) tid=(1,3,0)
GPGPU-Sim uArch: Shader 0 finished CTA #2 (17620,0), 5 CTAs running
GPGPU-Sim uArch: core:  0, cta: 2 initialized @(17621,0)
GPGPU-Sim uArch: Shader 2 finished CTA #2 (17696,0), 5 CTAs running
GPGPU-Sim uArch: core:  2, cta: 2 initialized @(17697,0)
GPGPU-Sim uArch: Shader 8 finished CTA #0 (17709,0), 5 CTAs running
GPGPU-Sim uArch: core:  8, cta: 0 initialized @(17710,0)
GPGPU-Sim PTX: 10000000 instructions simulated : ctaid=(0,306,0) tid=(9,5,0)
GPGPU-Sim uArch: Shader 6 finished CTA #2 (17844,0), 5 CTAs running
GPGPU-Sim uArch: core:  6, cta: 2 initialized @(17845,0)
GPGPU-Sim uArch: Shader 11 finished CTA #1 (17896,0), 5 CTAs running
GPGPU-Sim uArch: core: 11, cta: 1 initialized @(17897,0)
GPGPU-Sim uArch: Shader 13 finished CTA #0 (17909,0), 5 CTAs running
GPGPU-Sim uArch: core: 13, cta: 0 initialized @(17910,0)
GPGPU-Sim PTX: 10100000 instructions simulated : ctaid=(0,327,0) tid=(5,2,0)
GPGPU-Sim uArch: Shader 5 finished CTA #2 (17936,0), 5 CTAs running
GPGPU-Sim uArch: core:  5, cta: 2 initialized @(17937,0)
GPGPU-Sim uArch: Shader 1 finished CTA #2 (17970,0), 5 CTAs running
GPGPU-Sim uArch: core:  1, cta: 2 initialized @(17971,0)
GPGPU-Sim uArch: Shader 12 finished CTA #2 (17984,0), 5 CTAs running
GPGPU-Sim uArch: core: 12, cta: 2 initialized @(17985,0)
GPGPU-Sim uArch: cycles simulated: 18000  inst.: 9810102 (ipc=545.0) sim_rate=56057 (inst/sec) elapsed = 0:0:02:55 / Sun Feb  3 08:10:24 2019
GPGPU-Sim uArch: Shader 10 finished CTA #0 (18013,0), 5 CTAs running
GPGPU-Sim uArch: core: 10, cta: 0 initialized @(18014,0)
GPGPU-Sim uArch: Shader 9 finished CTA #2 (18037,0), 5 CTAs running
GPGPU-Sim uArch: core:  9, cta: 2 initialized @(18038,0)
GPGPU-Sim uArch: Shader 8 finished CTA #1 (18046,0), 5 CTAs running
GPGPU-Sim uArch: core:  8, cta: 1 initialized @(18047,0)
GPGPU-Sim PTX: 10200000 instructions simulated : ctaid=(0,337,0) tid=(9,11,0)
GPGPU-Sim uArch: Shader 14 finished CTA #1 (18161,0), 5 CTAs running
GPGPU-Sim uArch: core: 14, cta: 1 initialized @(18162,0)
GPGPU-Sim PTX: 10300000 instructions simulated : ctaid=(0,333,0) tid=(1,2,0)
GPGPU-Sim uArch: Shader 0 finished CTA #3 (18277,0), 5 CTAs running
GPGPU-Sim uArch: core:  0, cta: 3 initialized @(18278,0)
GPGPU-Sim uArch: Shader 6 finished CTA #3 (18322,0), 5 CTAs running
GPGPU-Sim uArch: core:  6, cta: 3 initialized @(18323,0)
GPGPU-Sim uArch: Shader 8 finished CTA #2 (18325,0), 5 CTAs running
GPGPU-Sim uArch: core:  8, cta: 2 initialized @(18326,0)
GPGPU-Sim uArch: Shader 4 finished CTA #1 (18333,0), 5 CTAs running
[...]
gpgpu_stall_shd_mem[l_mem_ld][wb_icnt_rc] = 0
gpgpu_stall_shd_mem[l_mem_ld][wb_rsrv_fail] = 0
gpu_reg_bank_conflict_stalls = 0
Warp Occupancy Distribution:
Stall:2712658	W0_Idle:38973	W0_Scoreboard:999656	W1:0	W2:688128	W3:0	W4:0	W5:0	W6:0	W7:0	W8:0	W9:0	W10:0	W11:0	W12:0	W13:0	W14:0	W15:0	W16:737304	W17:0	W18:0	W19:0	W20:0	W21:0	W22:0	W23:0	W24:0	W25:0	W26:0	W27:0	W28:0	W29:0	W30:32768	W31:0	W32:5406719
traffic_breakdown_coretomem[CONST_ACC_R] = 120 {8:15,}
traffic_breakdown_coretomem[GLOBAL_ACC_R] = 1177568 {8:147196,}
traffic_breakdown_coretomem[GLOBAL_ACC_W] = 20185360 {40:81920,72:49152,136:98306,}
traffic_breakdown_coretomem[INST_ACC_R] = 1328 {8:166,}
traffic_breakdown_memtocore[CONST_ACC_R] = 1080 {72:15,}
traffic_breakdown_memtocore[GLOBAL_ACC_R] = 20018656 {136:147196,}
traffic_breakdown_memtocore[GLOBAL_ACC_W] = 1835024 {8:229378,}
traffic_breakdown_memtocore[INST_ACC_R] = 22576 {136:166,}
maxmrqlatency = 648 
maxdqlatency = 0 
maxmflatency = 1490 
averagemflatency = 333 
max_icnt2mem_latency = 791 
max_icnt2sh_latency = 354492 
mrq_lat_table:44253 	2857 	6160 	8284 	23378 	37009 	46496 	45475 	5363 	6 	0 	0 	0 	0 	0 	0 	0 	0 	0 	0 	0 	0 	0 	0 	0 	0 	0 	0 	0 	0 	0 	0 	
dq_lat_table:0 	0 	0 	0 	0 	0 	0 	0 	0 	0 	0 	0 	0 	0 	0 	0 	0 	0 	0 	0 	0 	0 	0 	0 	0 	0 	0 	0 	0 	0 	0 	0 	
mf_lat_table:0 	0 	0 	0 	0 	0 	0 	152555 	166284 	56968 	782 	0 	0 	0 	0 	0 	0 	0 	0 	0 	0 	0 	0 	0 	0 	0 	0 	0 	0 	0 	0 	0 	
icnt2mem_lat_table:0 	0 	0 	76009 	51097 	75838 	111918 	45655 	15947 	291 	0 	0 	0 	0 	0 	0 	0 	0 	0 	0 	0 	0 	0 	0 	
icnt2sh_lat_table:0 	0 	0 	52041 	73523 	21211 	435 	1 	0 	0 	0 	0 	2160 	4374 	8643 	17260 	34668 	87396 	74877 	0 	0 	0 	0 	0 	
mf_lat_pw_table:0 	0 	0 	0 	0 	0 	0 	179 	508 	18 	0 	0 	0 	0 	0 	0 	0 	0 	0 	0 	0 	0 	0 	0 	0 	0 	0 	0 	0 	0 	0 	0 	
maximum concurrent accesses to same row:
dram[0]:        39        32        32        32        32        32        32        32        32        32        32        32        32        32        32        32 
dram[1]:        36        32        32        32        32        32        32        32        32        32        32        32        32        32        32        32 
dram[2]:        39        32        32        32        32        32        32        32        32        32        32        32        32        32        32        32 
dram[3]:        32        32        32        32        32        32        32        32        32        32        32        32        32        32        32        32 
dram[4]:        32        32        32        32        32        32        32        32        32        32        32        32        32        32        32        32 
dram[5]:        32        32        32        32        32        32        32        32        32        32        32        32        32        32        32        32 
maximum service time to same row:
dram[0]:     16032     16385     17844     17897     14644     14966     12546     12438     16117     15995     16134     16439     16376     16478     16431     16524 
dram[1]:     15355     16502     17957     17891     14796     14675     12403     12388     16107     15938     16129     16474     16357     16604     16493     16278 
dram[2]:     15079     16431     17988     17930     14563     14871     12050     12481     16342     15930     16419     16361     16456     16734     16613     16283 
dram[3]:     15114     16183     18261     18018     14989     15116     12491     12455     16532     16020     16431     16086     16438     16645     16426     16626 
dram[4]:     15962     16183     17976     18019     15012     14836     12359     12689     16717     15931     16408     16325     16438     16780     16567     16612 
dram[5]:     15989     16184     17856     18044     14852     14708     12069     13403     16564     16000     16374     16911     16493     16518     16458     16655 
average row accesses per activate:
dram[0]:  3.735441  3.943662  3.902439  4.392157  3.770000  4.028521  3.837479  4.319030  3.664547  3.859297  3.846411  4.272727  3.600000  3.891892  3.918367  4.298508 
dram[1]:  3.787162  4.332689  3.992870  4.375000  3.863248  3.945804  4.059649  4.205454  3.552469  3.986159  3.872269  4.129032  3.704180  3.931741  3.814569  4.306542 
dram[2]:  3.743760  4.132841  4.072727  4.409449  3.692811  3.958042  3.826446  4.265193  3.783251  4.056338  3.852843  4.274582  3.628346  4.027972  3.925043  4.210238 
dram[3]:  3.634740  4.234405  3.985765  4.357976  3.445122  4.169429  3.982788  4.251376  3.557099  3.958763  3.777049  4.278811  3.662957  3.852843  3.764706  4.077876 
dram[4]:  3.610306  4.102564  3.916084  4.392157  3.729373  4.224299  3.930391  4.120996  3.674641  3.878788  3.840000  4.347170  3.605634  4.035026  3.823920  4.306542 
dram[5]:  3.592949  4.266667  3.957597  4.471058  3.674797  4.035587  3.897306  4.419847  3.657143  3.945205  3.808264  4.422265  3.634069  4.129032  4.013937  4.290503 
average row locality = 219281/55367 = 3.960500
number of total memory accesses made:
dram[0]:         0         0         0         0         0         0         0         0         0         0         0         0         0         0         0         0 
dram[1]:         0         0         0         0         0         0         0         0         0         0         0         0         0         0         0         0 
dram[2]:         0         0         0         0         0         0         0         0         0         0         0         0         0         0         0         0 
dram[3]:         0         0         0         0         0         0         0         0         0         0         0         0         0         0         0         0 
dram[4]:         0         0         0         0         0         0         0         0         0         0         0         0         0         0         0         0 
dram[5]:         0         0         0         0         0         0         0         0         0         0         0         0         0         0         0         0 
total accesses: 0
min_bank_accesses = 0!
min_chip_accesses = 0!
number of total read accesses:
dram[0]:      1153      1152      1152      1152      1153      1152      1152      1152      1152      1152      1152      1152      1152      1152      1152      1152 
dram[1]:      1150      1152      1152      1152      1152      1152      1152      1152      1152      1152      1152      1152      1152      1152      1152      1152 
dram[2]:      1154      1152      1152      1152      1152      1156      1152      1152      1152      1152      1152      1152      1152      1152      1152      1152 
dram[3]:      1153      1152      1152      1152      1152      1156      1152      1152      1152      1152      1152      1152      1152      1152      1152      1152 
dram[4]:      1154      1152      1152      1152      1152      1154      1152      1152      1152      1152      1152      1152      1152      1152      1152      1152 
dram[5]:      1154      1152      1152      1152      1152      1154      1152      1152      1152      1152      1152      1152      1152      1152      1152      1152 
total reads: 110611
bank skew: 1156/1150 = 1.01
chip skew: 18438/18430 = 1.00
number of total write accesses:
dram[0]:      1092      1088      1088      1088      1109      1108      1162      1163      1153      1152      1152      1151      1152      1152      1152      1152 
dram[1]:      1092      1088      1088      1088      1108      1105      1162      1161      1150      1152      1152      1152      1152      1152      1152      1152 
dram[2]:      1096      1088      1088      1088      1108      1108      1163      1164      1152      1152      1152      1152      1152      1152      1152      1151 
dram[3]:      1086      1088      1088      1088      1108      1108      1162      1165      1153      1152      1152      1150      1152      1152      1152      1152 
dram[4]:      1088      1088      1088      1088      1108      1106      1163      1164      1152      1152      1152      1152      1152      1152      1150      1152 
dram[5]:      1088      1088      1088      1088      1108      1114      1163      1164      1152      1152      1152      1152      1152      1152      1152      1152 
total reads: 108670
bank skew: 1165/1086 = 1.07
chip skew: 18118/18106 = 1.00
average mf latency per bank:
dram[0]:        543       551       568       579       540       552       572       581       573       581       594       612       573       578       570       577
dram[1]:        550       559       574       594       547       567       576       589       566       581       589       604       578       579       585       578
dram[2]:        545       579       576       599       543       564       586       591       589       579       607       616       599       606       585       613
dram[3]:        549       553       570       584       534       542       573       571       571       561       586       578       569       579       585       592
dram[4]:        544       537       566       571       528       534       552       562       568       564       588       588       545       561       563       566
dram[5]:        555       572       567       588       542       547       575       581       576       581       595       603       571       582       578       577
maximum mf latency per bank:
dram[0]:       1126      1289      1267      1330      1121      1111      1403      1216      1186      1185      1093      1303      1061      1118      1128      1128
dram[1]:       1244      1047      1310      1490      1108      1194      1137      1100      1012      1031      1091      1146      1101      1253      1140      1025
dram[2]:       1115      1086      1214      1293      1200      1366      1058      1124      1122      1146      1125      1220      1114      1190      1158      1171
dram[3]:       1026      1067      1195      1328      1164      1174      1102      1151       989      1075      1162      1228      1056      1106      1057      1075
dram[4]:       1254      1070      1262      1427      1216      1170      1048      1098       998      1173      1067      1193      1058      1223      1059      1192
dram[5]:       1115      1348      1257      1470      1152      1109      1002      1289      1110      1164      1091      1167      1129      1449      1086      1234
Memory Partition 0: 
Cache L2_bank_000:
MSHR contents

Cache L2_bank_001:
MSHR contents

In Dram Latency Queue (total = 0): 
DRAM[0]: 16 bks, busW=4 BL=8 CL=12, tRRD=2 tCCD=6, tRCD=12 tRAS=28 tRP=12 tRC=40
n_cmd=354493 n_nop=264234 n_act=9273 n_pre=9257 n_req=36548 n_rd=36868 n_write=34861 bw_util=0.4047
n_activity=300679 dram_eff=0.4771
bk0: 2306a 309668i bk1: 2304a 306956i bk2: 2304a 306948i bk3: 2304a 304998i bk4: 2306a 308116i bk5: 2304a 307415i bk6: 2304a 308633i bk7: 2304a 307939i bk8: 2304a 307875i bk9: 2304a 307269i bk10: 2304a 306003i bk11: 2304a 305978i bk12: 2304a 304460i bk13: 2304a 304949i bk14: 2304a 305693i bk15: 2304a 305964i 
dram_util_bins: 0 0 0 0 0 0 0 0 0 0
dram_eff_bins: 0 0 0 0 0 0 0 0 0 0
mrqq: max=16 avg=7.6187
Memory Partition 1: 
Cache L2_bank_002:
MSHR contents

Cache L2_bank_003:
MSHR contents

In Dram Latency Queue (total = 0): 
DRAM[1]: 16 bks, busW=4 BL=8 CL=12, tRRD=2 tCCD=6, tRCD=12 tRAS=28 tRP=12 tRC=40
n_cmd=354493 n_nop=264427 n_act=9185 n_pre=9169 n_req=36536 n_rd=36860 n_write=34852 bw_util=0.4046
n_activity=301081 dram_eff=0.4764
bk0: 2300a 310609i bk1: 2304a 308719i bk2: 2304a 306481i bk3: 2304a 306426i bk4: 2304a 308644i bk5: 2304a 307284i bk6: 2304a 308908i bk7: 2304a 307525i bk8: 2304a 308662i bk9: 2304a 307011i bk10: 2304a 305747i bk11: 2304a 305273i bk12: 2304a 305367i bk13: 2304a 304480i bk14: 2304a 305506i bk15: 2304a 306228i 
dram_util_bins: 0 0 0 0 0 0 0 0 0 0
dram_eff_bins: 0 0 0 0 0 0 0 0 0 0
mrqq: max=16 avg=7.66129
Memory Partition 2: 
Cache L2_bank_004:
MSHR contents

Cache L2_bank_005:
MSHR contents

In Dram Latency Queue (total = 0): 
DRAM[2]: 16 bks, busW=4 BL=8 CL=12, tRRD=2 tCCD=6, tRCD=12 tRAS=28 tRP=12 tRC=40
n_cmd=354493 n_nop=264387 n_act=9188 n_pre=9172 n_req=36556 n_rd=36876 n_write=34870 bw_util=0.4048
n_activity=300634 dram_eff=0.4773
bk0: 2308a 309897i bk1: 2304a 308358i bk2: 2304a 306975i bk3: 2304a 305866i bk4: 2304a 308147i bk5: 2312a 307625i bk6: 2304a 308160i bk7: 2304a 307028i bk8: 2304a 309262i bk9: 2304a 308589i bk10: 2304a 307019i bk11: 2304a 306043i bk12: 2304a 305006i bk13: 2304a 305035i bk14: 2304a 307381i bk15: 2304a 306202i 
dram_util_bins: 0 0 0 0 0 0 0 0 0 0
dram_eff_bins: 0 0 0 0 0 0 0 0 0 0
mrqq: max=16 avg=7.66402
Memory Partition 3: 
Cache L2_bank_006:
MSHR contents

Cache L2_bank_007:
MSHR contents

In Dram Latency Queue (total = 0): 
DRAM[3]: 16 bks, busW=4 BL=8 CL=12, tRRD=2 tCCD=6, tRCD=12 tRAS=28 tRP=12 tRC=40
n_cmd=354493 n_nop=264121 n_act=9328 n_pre=9312 n_req=36545 n_rd=36874 n_write=34858 bw_util=0.4047
n_activity=300985 dram_eff=0.4766
bk0: 2306a 308506i bk1: 2304a 309345i bk2: 2304a 306732i bk3: 2304a 305335i bk4: 2304a 307435i bk5: 2312a 307953i bk6: 2304a 308663i bk7: 2304a 308562i bk8: 2304a 307102i bk9: 2304a 306750i bk10: 2304a 306157i bk11: 2304a 305580i bk12: 2304a 305836i bk13: 2304a 303982i bk14: 2304a 304929i bk15: 2304a 303967i 
dram_util_bins: 0 0 0 0 0 0 0 0 0 0
dram_eff_bins: 0 0 0 0 0 0 0 0 0 0
mrqq: max=16 avg=7.57876
Memory Partition 4: 
Cache L2_bank_008:
MSHR contents

Cache L2_bank_009:
MSHR contents

In Dram Latency Queue (total = 0): 
DRAM[4]: 16 bks, busW=4 BL=8 CL=12, tRRD=2 tCCD=6, tRCD=12 tRAS=28 tRP=12 tRC=40
n_cmd=354493 n_nop=264303 n_act=9239 n_pre=9223 n_req=36543 n_rd=36872 n_write=34856 bw_util=0.4047
n_activity=301430 dram_eff=0.4759
bk0: 2308a 308053i bk1: 2304a 309112i bk2: 2304a 305368i bk3: 2304a 306715i bk4: 2304a 307499i bk5: 2308a 307830i bk6: 2304a 308500i bk7: 2304a 307317i bk8: 2304a 308598i bk9: 2304a 307792i bk10: 2304a 306304i bk11: 2304a 308016i bk12: 2304a 305051i bk13: 2304a 305070i bk14: 2304a 305550i bk15: 2304a 305983i 
dram_util_bins: 0 0 0 0 0 0 0 0 0 0
dram_eff_bins: 0 0 0 0 0 0 0 0 0 0
mrqq: max=16 avg=7.55198
Memory Partition 5: 
Cache L2_bank_010:
MSHR contents

Cache L2_bank_011:
MSHR contents

In Dram Latency Queue (total = 0): 
DRAM[5]: 16 bks, busW=4 BL=8 CL=12, tRRD=2 tCCD=6, tRCD=12 tRAS=28 tRP=12 tRC=40
n_cmd=354493 n_nop=264463 n_act=9154 n_pre=9138 n_req=36553 n_rd=36872 n_write=34866 bw_util=0.4047
n_activity=302033 dram_eff=0.475
bk0: 2308a 308564i bk1: 2304a 308467i bk2: 2304a 306309i bk3: 2304a 306613i bk4: 2304a 306428i bk5: 2308a 307403i bk6: 2304a 307142i bk7: 2304a 308033i bk8: 2304a 307872i bk9: 2304a 306525i bk10: 2304a 306130i bk11: 2304a 306768i bk12: 2304a 304874i bk13: 2304a 305652i bk14: 2304a 306569i bk15: 2304a 305339i 
dram_util_bins: 0 0 0 0 0 0 0 0 0 0
dram_eff_bins: 0 0 0 0 0 0 0 0 0 0
mrqq: max=16 avg=7.68836

========= L2 cache stats =========
L2_cache_bank[0]: Access = 31490, Miss = 9218, Miss_rate = 0.293, Pending_hits = 1277, Reservation_fails = 25183
L2_cache_bank[1]: Access = 31378, Miss = 9216, Miss_rate = 0.294, Pending_hits = 1298, Reservation_fails = 23867
L2_cache_bank[2]: Access = 31334, Miss = 9214, Miss_rate = 0.294, Pending_hits = 1299, Reservation_fails = 24304
L2_cache_bank[3]: Access = 31376, Miss = 9216, Miss_rate = 0.294, Pending_hits = 1272, Reservation_fails = 24753
L2_cache_bank[4]: Access = 31396, Miss = 9218, Miss_rate = 0.294, Pending_hits = 1322, Reservation_fails = 24440
L2_cache_bank[5]: Access = 31369, Miss = 9220, Miss_rate = 0.294, Pending_hits = 1261, Reservation_fails = 24649
L2_cache_bank[6]: Access = 31464, Miss = 9217, Miss_rate = 0.293, Pending_hits = 1306, Reservation_fails = 23779
L2_cache_bank[7]: Access = 31441, Miss = 9220, Miss_rate = 0.293, Pending_hits = 1334, Reservation_fails = 23740
L2_cache_bank[8]: Access = 31399, Miss = 9218, Miss_rate = 0.294, Pending_hits = 1289, Reservation_fails = 23930
L2_cache_bank[9]: Access = 31388, Miss = 9218, Miss_rate = 0.294, Pending_hits = 1270, Reservation_fails = 24038
L2_cache_bank[10]: Access = 31362, Miss = 9218, Miss_rate = 0.294, Pending_hits = 1320, Reservation_fails = 24316
L2_cache_bank[11]: Access = 31358, Miss = 9218, Miss_rate = 0.294, Pending_hits = 1312, Reservation_fails = 25075
L2_total_cache_accesses = 376755
L2_total_cache_misses = 110611
L2_total_cache_miss_rate = 0.2936
L2_total_cache_pending_hits = 15560
L2_total_cache_reservation_fails = 292074
L2_total_cache_breakdown:
	L2_cache_stats_breakdown[GLOBAL_ACC_R][HIT] = 29248
	L2_cache_stats_breakdown[GLOBAL_ACC_R][HIT_RESERVED] = 9398
	L2_cache_stats_breakdown[GLOBAL_ACC_R][MISS] = 108550
	L2_cache_stats_breakdown[GLOBAL_ACC_R][RESERVATION_FAIL] = 3640
	L2_cache_stats_breakdown[CONST_ACC_R][HIT] = 11
	L2_cache_stats_breakdown[CONST_ACC_R][HIT_RESERVED] = 3
	L2_cache_stats_breakdown[CONST_ACC_R][MISS] = 1
	L2_cache_stats_breakdown[CONST_ACC_R][RESERVATION_FAIL] = 119
	L2_cache_stats_breakdown[GLOBAL_ACC_W][HIT] = 221201
	L2_cache_stats_breakdown[GLOBAL_ACC_W][HIT_RESERVED] = 6129
	L2_cache_stats_breakdown[GLOBAL_ACC_W][MISS] = 2048
	L2_cache_stats_breakdown[GLOBAL_ACC_W][RESERVATION_FAIL] = 287143
	L2_cache_stats_breakdown[INST_ACC_R][HIT] = 124
	L2_cache_stats_breakdown[INST_ACC_R][HIT_RESERVED] = 30
	L2_cache_stats_breakdown[INST_ACC_R][MISS] = 12
	L2_cache_stats_breakdown[INST_ACC_R][RESERVATION_FAIL] = 1172
L2_cache_data_port_util = 0.253
L2_cache_fill_port_util = 0.104

icnt_total_pkts_mem_to_simt=966233
icnt_total_pkts_simt_to_mem=950203
LD_mem_lat_dist  0 0 0 0 0 0 0 0 0 0 0 0 0 0 0 0 0 0 0 0 0 0 0 0 0 0 0
ST_mem_lat_dist  0 0 0 0 0 0 0 0 0 0 0 0 0 0 0 0 0 0 0 0 0 0 0 0 0 0 0
----------------------------Interconnect-DETAILS--------------------------------
Class 0:
Packet latency average = 34.361
	minimum = 6
	maximum = 592
Network latency average = 23.4274
	minimum = 6
	maximum = 560
Slowest packet = 580729
Flit latency average = 19.492
	minimum = 6
	maximum = 556
Slowest flit = 1458938
Fragmentation average = 0.195317
	minimum = 0
	maximum = 410
Injected packet rate average = 0.105048
	minimum = 0.092785 (at node 10)
	maximum = 0.118624 (at node 21)
Accepted packet rate average = 0.105048
	minimum = 0.092785 (at node 10)
	maximum = 0.118624 (at node 21)
Injected flit rate average = 0.278249
	minimum = 0.236197 (at node 10)
	maximum = 0.32748 (at node 21)
Accepted flit rate average= 0.278249
	minimum = 0.255312 (at node 10)
	maximum = 0.301228 (at node 21)
Injected packet length average = 2.64879
Accepted packet length average = 2.64879
Total in-flight flits = 0 (0 measured)
====== Overall Traffic Statistics ======
====== Traffic class 0 ======
Packet latency average = 26.663 (2 samples)
	minimum = 6 (2 samples)
	maximum = 556 (2 samples)
Network latency average = 19.2697 (2 samples)
	minimum = 6 (2 samples)
	maximum = 493 (2 samples)
Flit latency average = 16.4453 (2 samples)
	minimum = 6 (2 samples)
	maximum = 490.5 (2 samples)
Fragmentation average = 0.185043 (2 samples)
	minimum = 0 (2 samples)
	maximum = 386.5 (2 samples)
Injected packet rate average = 0.0804948 (2 samples)
	minimum = 0.0713772 (2 samples)
	maximum = 0.090907 (2 samples)
Accepted packet rate average = 0.0804948 (2 samples)
	minimum = 0.0713772 (2 samples)
	maximum = 0.090907 (2 samples)
Injected flit rate average = 0.20547 (2 samples)
	minimum = 0.180146 (2 samples)
	maximum = 0.235221 (2 samples)
Accepted flit rate average = 0.20547 (2 samples)
	minimum = 0.184117 (2 samples)
	maximum = 0.228952 (2 samples)
Injected packet size average = 2.55259 (2 samples)
Accepted packet size average = 2.55259 (2 samples)
Hops average = 1 (2 samples)
----------------------------END-of-Interconnect-DETAILS-------------------------


gpgpu_simulation_time = 0 days, 0 hrs, 39 min, 25 sec (2365 sec)
gpgpu_simulation_rate = 76952 (inst/sec)
gpgpu_simulation_rate = 149 (cycle/sec)
Training done
