

        *** GPGPU-Sim Simulator Version 3.2.2  [build 0] ***


GPGPU-Sim PTX: simulation mode 0 (can change with PTX_SIM_MODE_FUNC environment variable:
               1=functional simulation only, 0=detailed performance simulator)
GPGPU-Sim: Configuration options:

-network_mode                           1 # Interconnection network mode
-inter_config_file   config_fermi_islip.icnt # Interconnection network config file
-gpgpu_ptx_use_cuobjdump                    1 # Use cuobjdump to extract ptx and sass from binaries
-gpgpu_experimental_lib_support                    0 # Try to extract code from cuda libraries [Broken because of unknown cudaGetExportTable]
-gpgpu_ptx_convert_to_ptxplus                    0 # Convert SASS (native ISA) to ptxplus and run ptxplus
-gpgpu_ptx_force_max_capability                   20 # Force maximum compute capability
-gpgpu_ptx_inst_debug_to_file                    0 # Dump executed instructions' debug information to file
-gpgpu_ptx_inst_debug_file       inst_debug.txt # Executed instructions' debug output file
-gpgpu_ptx_inst_debug_thread_uid                    1 # Thread UID for executed instructions' debug output
-gpgpu_simd_model                       1 # 1 = post-dominator
-gpgpu_shader_core_pipeline              1536:32 # shader core pipeline config, i.e., {<nthread>:<warpsize>}
-gpgpu_tex_cache:l1  4:128:24,L:R:m:N:L,F:128:4,128:2 # per-shader L1 texture cache  (READ-ONLY) config  {<nsets>:<bsize>:<assoc>,<rep>:<wr>:<alloc>:<wr_alloc>,<mshr>:<N>:<merge>,<mq>:<rf>}
-gpgpu_const_cache:l1 64:64:2,L:R:f:N:L,A:2:32,4 # per-shader L1 constant memory cache  (READ-ONLY) config  {<nsets>:<bsize>:<assoc>,<rep>:<wr>:<alloc>:<wr_alloc>,<mshr>:<N>:<merge>,<mq>} 
-gpgpu_cache:il1     4:128:4,L:R:f:N:L,A:2:32,4 # shader L1 instruction cache config  {<nsets>:<bsize>:<assoc>,<rep>:<wr>:<alloc>:<wr_alloc>,<mshr>:<N>:<merge>,<mq>} 
-gpgpu_cache:dl1     32:128:4,L:L:m:N:H,A:32:8,8 # per-shader L1 data cache config  {<nsets>:<bsize>:<assoc>,<rep>:<wr>:<alloc>:<wr_alloc>,<mshr>:<N>:<merge>,<mq> | none}
-gpgpu_cache:dl1PrefL1                 none # per-shader L1 data cache config  {<nsets>:<bsize>:<assoc>,<rep>:<wr>:<alloc>:<wr_alloc>,<mshr>:<N>:<merge>,<mq> | none}
-gpgpu_cache:dl1PreShared                 none # per-shader L1 data cache config  {<nsets>:<bsize>:<assoc>,<rep>:<wr>:<alloc>:<wr_alloc>,<mshr>:<N>:<merge>,<mq> | none}
-gmem_skip_L1D                          0 # global memory access skip L1D cache (implements -Xptxas -dlcm=cg, default=no skip)
-gpgpu_perfect_mem                      0 # enable perfect memory mode (no cache miss)
-n_regfile_gating_group                    4 # group of lanes that should be read/written together)
-gpgpu_clock_gated_reg_file                    0 # enable clock gated reg file for power calculations
-gpgpu_clock_gated_lanes                    0 # enable clock gated lanes for power calculations
-gpgpu_shader_registers                32768 # Number of registers per shader core. Limits number of concurrent CTAs. (default 8192)
-gpgpu_shader_cta                       8 # Maximum number of concurrent CTAs in shader (default 8)
-gpgpu_num_cta_barriers                   16 # Maximum number of named barriers per CTA (default 16)
-gpgpu_n_clusters                      15 # number of processing clusters
-gpgpu_n_cores_per_cluster                    1 # number of simd cores per cluster
-gpgpu_n_cluster_ejection_buffer_size                    8 # number of packets in ejection buffer
-gpgpu_n_ldst_response_buffer_size                    2 # number of response packets in ld/st unit ejection buffer
-gpgpu_shmem_size                   16384 # Size of shared memory per shader core (default 16kB)
-gpgpu_shmem_size                   49152 # Size of shared memory per shader core (default 16kB)
-gpgpu_shmem_size_PrefL1                16384 # Size of shared memory per shader core (default 16kB)
-gpgpu_shmem_size_PrefShared                16384 # Size of shared memory per shader core (default 16kB)
-gpgpu_shmem_num_banks                   32 # Number of banks in the shared memory in each shader core (default 16)
-gpgpu_shmem_limited_broadcast                    0 # Limit shared memory to do one broadcast per cycle (default on)
-gpgpu_shmem_warp_parts                    1 # Number of portions a warp is divided into for shared memory bank conflict check 
-gpgpu_warpdistro_shader                   -1 # Specify which shader core to collect the warp size distribution from
-gpgpu_warp_issue_shader                    0 # Specify which shader core to collect the warp issue distribution from
-gpgpu_local_mem_map                    1 # Mapping from local memory space address to simulated GPU physical address space (default = enabled)
-gpgpu_num_reg_banks                   16 # Number of register banks (default = 8)
-gpgpu_reg_bank_use_warp_id                    0 # Use warp ID in mapping registers to banks (default = off)
-gpgpu_operand_collector_num_units_sp                    6 # number of collector units (default = 4)
-gpgpu_operand_collector_num_units_sfu                    8 # number of collector units (default = 4)
-gpgpu_operand_collector_num_units_mem                    2 # number of collector units (default = 2)
-gpgpu_operand_collector_num_units_gen                    0 # number of collector units (default = 0)
-gpgpu_operand_collector_num_in_ports_sp                    2 # number of collector unit in ports (default = 1)
-gpgpu_operand_collector_num_in_ports_sfu                    1 # number of collector unit in ports (default = 1)
-gpgpu_operand_collector_num_in_ports_mem                    1 # number of collector unit in ports (default = 1)
-gpgpu_operand_collector_num_in_ports_gen                    0 # number of collector unit in ports (default = 0)
-gpgpu_operand_collector_num_out_ports_sp                    2 # number of collector unit in ports (default = 1)
-gpgpu_operand_collector_num_out_ports_sfu                    1 # number of collector unit in ports (default = 1)
-gpgpu_operand_collector_num_out_ports_mem                    1 # number of collector unit in ports (default = 1)
-gpgpu_operand_collector_num_out_ports_gen                    0 # number of collector unit in ports (default = 0)
-gpgpu_coalesce_arch                   13 # Coalescing arch (default = 13, anything else is off for now)
-gpgpu_num_sched_per_core                    2 # Number of warp schedulers per core
-gpgpu_max_insn_issue_per_warp                    1 # Max number of instructions that can be issued per warp in one cycle by scheduler
-gpgpu_simt_core_sim_order                    1 # Select the simulation order of cores in a cluster (0=Fix, 1=Round-Robin)
-gpgpu_pipeline_widths        2,1,1,2,1,1,2 # Pipeline widths ID_OC_SP,ID_OC_SFU,ID_OC_MEM,OC_EX_SP,OC_EX_SFU,OC_EX_MEM,EX_WB
-gpgpu_num_sp_units                     2 # Number of SP units (default=1)
-gpgpu_num_sfu_units                    1 # Number of SF units (default=1)
-gpgpu_num_mem_units                    1 # Number if ldst units (default=1) WARNING: not hooked up to anything
-gpgpu_scheduler                      gto # Scheduler configuration: < lrr | gto | two_level_active > If two_level_active:<num_active_warps>:<inner_prioritization>:<outer_prioritization>For complete list of prioritization values see shader.h enum scheduler_prioritization_typeDefault: gto
-gpgpu_dram_scheduler                    1 # 0 = fifo, 1 = FR-FCFS (defaul)
-gpgpu_dram_partition_queues              8:8:8:8 # i2$:$2d:d2$:$2i
-l2_ideal                               0 # Use a ideal L2 cache that always hit
-gpgpu_cache:dl2     64:128:8,L:B:m:W:L,A:32:4,4:0,32 # unified banked L2 data cache config  {<nsets>:<bsize>:<assoc>,<rep>:<wr>:<alloc>:<wr_alloc>,<mshr>:<N>:<merge>,<mq>}
-gpgpu_cache:dl2_texture_only                    0 # L2 cache used for texture only
-gpgpu_n_mem                            6 # number of memory modules (e.g. memory controllers) in gpu
-gpgpu_n_sub_partition_per_mchannel                    2 # number of memory subpartition in each memory module
-gpgpu_n_mem_per_ctrlr                    2 # number of memory chips per memory controller
-gpgpu_memlatency_stat                   14 # track and display latency statistics 0x2 enables MC, 0x4 enables queue logs
-gpgpu_frfcfs_dram_sched_queue_size                   16 # 0 = unlimited (default); # entries per chip
-gpgpu_dram_return_queue_size                   84 # 0 = unlimited (default); # entries per chip
-gpgpu_dram_buswidth                    4 # default = 4 bytes (8 bytes per cycle at DDR)
-gpgpu_dram_burst_length                    8 # Burst length of each DRAM request (default = 4 data bus cycle)
-dram_data_command_freq_ratio                    4 # Frequency ratio between DRAM data bus and command bus (default = 2 times, i.e. DDR)
-gpgpu_dram_timing_opt nbk=16:CCD=2:RRD=6:RCD=12:RAS=28:RP=12:RC=40: CL=12:WL=4:CDLR=5:WR=12:nbkgrp=4:CCDL=3:RTPL=2 # DRAM timing parameters = {nbk:tCCD:tRRD:tRCD:tRAS:tRP:tRC:CL:WL:tCDLR:tWR:nbkgrp:tCCDL:tRTPL}
-rop_latency                          120 # ROP queue latency (default 85)
-dram_latency                         100 # DRAM latency (default 30)
-gpgpu_mem_addr_mapping dramid@8;00000000.00000000.00000000.00000000.0000RRRR.RRRRRRRR.BBBCCCCB.CCSSSSSS # mapping memory address to dram model {dramid@<start bit>;<memory address map>}
-gpgpu_mem_addr_test                    0 # run sweep test to check address mapping for aliased address
-gpgpu_mem_address_mask                    1 # 0 = old addressing mask, 1 = new addressing mask, 2 = new add. mask + flipped bank sel and chip sel bits
-gpuwattch_xml_file  gpuwattch_gtx480.xml # GPUWattch XML file
-power_simulation_enabled                    1 # Turn on power simulator (1=On, 0=Off)
-power_per_cycle_dump                    0 # Dump detailed power output each cycle
-power_trace_enabled                    0 # produce a file for the power trace (1=On, 0=Off)
-power_trace_zlevel                     6 # Compression level of the power trace output log (0=no comp, 9=highest)
-steady_power_levels_enabled                    0 # produce a file for the steady power levels (1=On, 0=Off)
-steady_state_definition                  8:4 # allowed deviation:number of samples
-gpgpu_max_cycle                        0 # terminates gpu simulation early (0 = no limit)
-gpgpu_max_insn                         0 # terminates gpu simulation early (0 = no limit)
-gpgpu_max_cta                          0 # terminates gpu simulation early (0 = no limit)
-gpgpu_runtime_stat                   500 # display runtime statistics such as dram utilization {<freq>:<flag>}
-liveness_message_freq                    1 # Minimum number of seconds between simulation liveness messages (0 = always print)
-gpgpu_flush_l1_cache                    0 # Flush L1 cache at the end of each kernel call
-gpgpu_flush_l2_cache                    0 # Flush L2 cache at the end of each kernel call
-gpgpu_deadlock_detect                    1 # Stop the simulation at deadlock (1=on (default), 0=off)
-gpgpu_ptx_instruction_classification                    0 # if enabled will classify ptx instruction types per kernel (Max 255 kernels now)
-gpgpu_ptx_sim_mode                     0 # Select between Performance (default) or Functional simulation (1)
-gpgpu_clock_domains 700.0:700.0:700.0:700.0 # Clock Domain Frequencies in MhZ {<Core Clock>:<ICNT Clock>:<L2 Clock>:<DRAM Clock>}
-gpgpu_max_concurrent_kernel                    8 # maximum kernels that can run concurrently on GPU
-gpgpu_cflog_interval                    0 # Interval between each snapshot in control flow logger
-visualizer_enabled                     0 # Turn on visualizer output (1=On, 0=Off)
-visualizer_outputfile                 NULL # Specifies the output log file for visualizer
-visualizer_zlevel                      6 # Compression level of the visualizer output log (0=no comp, 9=highest)
-trace_enabled                          0 # Turn on traces
-trace_components                    none # comma seperated list of traces to enable. Complete list found in trace_streams.tup. Default none
-trace_sampling_core                    0 # The core which is printed using CORE_DPRINTF. Default 0
-trace_sampling_memory_partition                   -1 # The memory partition which is printed using MEMPART_DPRINTF. Default -1 (i.e. all)
-enable_ptx_file_line_stats                    1 # Turn on PTX source line statistic profiling. (1 = On)
-ptx_line_stats_filename gpgpu_inst_stats.txt # Output file for PTX source line statistics.
-save_embedded_ptx                      0 # saves ptx files embedded in binary as <n>.ptx
-keep                                   0 # keep intermediate files created by GPGPU-Sim when interfacing with external programs
-gpgpu_ptx_save_converted_ptxplus                    0 # Saved converted ptxplus to a file
-ptx_opcode_latency_int         4,13,4,5,145 # Opcode latencies for integers <ADD,MAX,MUL,MAD,DIV>Default 1,1,19,25,145
-ptx_opcode_latency_fp          4,13,4,5,39 # Opcode latencies for single precision floating points <ADD,MAX,MUL,MAD,DIV>Default 1,1,1,1,30
-ptx_opcode_latency_dp         8,19,8,8,330 # Opcode latencies for double precision floating points <ADD,MAX,MUL,MAD,DIV>Default 8,8,8,8,335
-ptx_opcode_initiation_int            1,2,2,1,8 # Opcode initiation intervals for integers <ADD,MAX,MUL,MAD,DIV>Default 1,1,4,4,32
-ptx_opcode_initiation_fp            1,2,1,1,4 # Opcode initiation intervals for single precision floating points <ADD,MAX,MUL,MAD,DIV>Default 1,1,1,1,5
-ptx_opcode_initiation_dp         8,16,8,8,130 # Opcode initiation intervals for double precision floating points <ADD,MAX,MUL,MAD,DIV>Default 8,8,8,8,130
DRAM Timing Options:
nbk                                    16 # number of banks
CCD                                     2 # column to column delay
RRD                                     6 # minimal delay between activation of rows in different banks
RCD                                    12 # row to column delay
RAS                                    28 # time needed to activate row
RP                                     12 # time needed to precharge (deactivate) row
RC                                     40 # row cycle time
CDLR                                    5 # switching from write to read (changes tWTR)
WR                                     12 # last data-in to row precharge
CL                                     12 # CAS latency
WL                                      4 # Write latency
nbkgrp                                  4 # number of bank groups
CCDL                                    3 # column to column delay between accesses to different bank groups
RTPL                                    2 # read to precharge delay between accesses to different bank groups
Total number of memory sub partition = 12
addr_dec_mask[CHIP]  = 0000000000000000 	high:64 low:0
addr_dec_mask[BK]    = 000000000000e100 	high:16 low:8
addr_dec_mask[ROW]   = 000000000fff0000 	high:28 low:16
addr_dec_mask[COL]   = 0000000000001eff 	high:13 low:0
addr_dec_mask[BURST] = 000000000000003f 	high:6 low:0
sub_partition_id_mask = 0000000000000100
GPGPU-Sim uArch: clock freqs: 700000000.000000:700000000.000000:700000000.000000:700000000.000000
GPGPU-Sim uArch: clock periods: 0.00000000142857142857:0.00000000142857142857:0.00000000142857142857:0.00000000142857142857
*** Initializing Memory Statistics ***
GPGPU-Sim uArch: interconnect node map (shaderID+MemID to icntID)
GPGPU-Sim uArch: Memory nodes ID start from index: 15
GPGPU-Sim uArch:    0   1   2   3   4
GPGPU-Sim uArch:    5   6   7   8   9
GPGPU-Sim uArch:   10  11  12  13  14
GPGPU-Sim uArch:   15  16  17  18  19
GPGPU-Sim uArch:   20  21  22  23  24
GPGPU-Sim uArch:   25  26
GPGPU-Sim uArch: interconnect node reverse map (icntID to shaderID+MemID)
GPGPU-Sim uArch: Memory nodes start from ID: 15
GPGPU-Sim uArch:    0   1   2   3   4
GPGPU-Sim uArch:    5   6   7   8   9
GPGPU-Sim uArch:   10  11  12  13  14
GPGPU-Sim uArch:   15  16  17  18  19
GPGPU-Sim uArch:   20  21  22  23  24
GPGPU-Sim uArch:   25  26
f4e1a13b3ba5c4597b0283ca24479643  /home/gpgpu-sim/Documents/Dynamic_GPU_Cache_Bypass_Project/benchmarks/test/b+tree-rodinia-3.1
GPGPU-Sim uArch: performance model initialization complete.
GPGPU-Sim PTX: __cudaRegisterFatBinary, fat_cubin_handle = 1, filename=./kernel/kernel_gpu_cuda_wrapper.cu
self exe links to: /home/gpgpu-sim/Documents/Dynamic_GPU_Cache_Bypass_Project/benchmarks/test/b+tree-rodinia-3.1
Running md5sum using "md5sum /home/gpgpu-sim/Documents/Dynamic_GPU_Cache_Bypass_Project/benchmarks/test/b+tree-rodinia-3.1 "
Running cuobjdump using "$CUDA_INSTALL_PATH/bin/cuobjdump -ptx -elf -sass /home/gpgpu-sim/Documents/Dynamic_GPU_Cache_Bypass_Project/benchmarks/test/b+tree-rodinia-3.1 > _cuobjdump_complete_output_gFDQgt"
Parsing file _cuobjdump_complete_output_gFDQgt
######### cuobjdump parser ########
## Adding new section ELF
Adding arch: sm_30
Adding identifier: ./kernel/kernel_gpu_cuda_wrapper.cu
## Adding new section PTX
Adding ptx filename: _cuobjdump_1.ptx
Adding arch: sm_30
Adding identifier: ./kernel/kernel_gpu_cuda_wrapper.cu
## Adding new section ELF
Adding arch: sm_13
Adding identifier: ./kernel/kernel_gpu_cuda_wrapper.cu
## Adding new section PTX
Adding ptx filename: _cuobjdump_2.ptx
Adding arch: sm_13
Adding identifier: ./kernel/kernel_gpu_cuda_wrapper.cu
## Adding new section ELF
Adding arch: sm_20
Adding identifier: ./kernel/kernel_gpu_cuda_wrapper.cu
## Adding new section PTX
Adding ptx filename: _cuobjdump_3.ptx
Adding arch: sm_20
Adding identifier: ./kernel/kernel_gpu_cuda_wrapper.cu
## Adding new section ELF
Adding arch: sm_10
Adding identifier: ./kernel/kernel_gpu_cuda_wrapper.cu
## Adding new section PTX
Adding ptx filename: _cuobjdump_4.ptx
Adding arch: sm_10
Adding identifier: ./kernel/kernel_gpu_cuda_wrapper.cu
## Adding new section ELF
Adding arch: sm_30
Adding identifier: ./kernel/kernel_gpu_cuda_wrapper_2.cu
## Adding new section PTX
Adding ptx filename: _cuobjdump_5.ptx
Adding arch: sm_30
Adding identifier: ./kernel/kernel_gpu_cuda_wrapper_2.cu
## Adding new section ELF
Adding arch: sm_13
Adding identifier: ./kernel/kernel_gpu_cuda_wrapper_2.cu
## Adding new section PTX
Adding ptx filename: _cuobjdump_6.ptx
Adding arch: sm_13
Adding identifier: ./kernel/kernel_gpu_cuda_wrapper_2.cu
## Adding new section ELF
Adding arch: sm_20
Adding identifier: ./kernel/kernel_gpu_cuda_wrapper_2.cu
## Adding new section PTX
Adding ptx filename: _cuobjdump_7.ptx
Adding arch: sm_20
Adding identifier: ./kernel/kernel_gpu_cuda_wrapper_2.cu
## Adding new section ELF
Adding arch: sm_10
Adding identifier: ./kernel/kernel_gpu_cuda_wrapper_2.cu
## Adding new section PTX
Adding ptx filename: _cuobjdump_8.ptx
Adding arch: sm_10
Adding identifier: ./kernel/kernel_gpu_cuda_wrapper_2.cu
## Adding new section ELF
Adding arch: sm_30
Adding identifier: ./util/cuda/cuda.cu
## Adding new section PTX
Adding ptx filename: _cuobjdump_9.ptx
Adding arch: sm_30
Adding identifier: ./util/cuda/cuda.cu
## Adding new section ELF
Adding arch: sm_13
Adding identifier: ./util/cuda/cuda.cu
## Adding new section PTX
Adding ptx filename: _cuobjdump_10.ptx
Adding arch: sm_13
Adding identifier: ./util/cuda/cuda.cu
## Adding new section ELF
Adding arch: sm_20
Adding identifier: ./util/cuda/cuda.cu
## Adding new section PTX
Adding ptx filename: _cuobjdump_11.ptx
Adding arch: sm_20
Adding identifier: ./util/cuda/cuda.cu
## Adding new section ELF
Adding arch: sm_10
Adding identifier: ./util/cuda/cuda.cu
## Adding new section PTX
Adding ptx filename: _cuobjdump_12.ptx
Adding arch: sm_10
Adding identifier: ./util/cuda/cuda.cu
Done parsing!!!
GPGPU-Sim PTX: __cudaRegisterFunction findK : hostFun 0x0x405a30, fat_cubin_handle = 1
GPGPU-Sim PTX: instruction assembly for function 'findK'...   done.
GPGPU-Sim PTX: finding reconvergence points for 'findK'...
GPGPU-Sim PTX: Finding dominators for 'findK'...
GPGPU-Sim PTX: Finding immediate dominators for 'findK'...
GPGPU-Sim PTX: Finding postdominators for 'findK'...
GPGPU-Sim PTX: Finding immediate postdominators for 'findK'...
GPGPU-Sim PTX: pre-decoding instructions for 'findK'...
GPGPU-Sim PTX: reconvergence points for findK...
GPGPU-Sim PTX:  1 (potential) branch divergence @  PC=0x090 (_1.ptx:54) @%p2 bra BB0_9;
GPGPU-Sim PTX:    immediate post dominator      @  PC=0x1b0 (_1.ptx:121) mov.u32 %r18, %tid.x;
GPGPU-Sim PTX:  2 (potential) branch divergence @  PC=0x100 (_1.ptx:77) @%p3 bra BB0_6;
GPGPU-Sim PTX:    immediate post dominator      @  PC=0x160 (_1.ptx:99) bar.sync 0;
GPGPU-Sim PTX:  3 (potential) branch divergence @  PC=0x118 (_1.ptx:81) @%p4 bra BB0_6;
GPGPU-Sim PTX:    immediate post dominator      @  PC=0x160 (_1.ptx:99) bar.sync 0;
GPGPU-Sim PTX:  4 (potential) branch divergence @  PC=0x150 (_1.ptx:92) @%p5 bra BB0_6;
GPGPU-Sim PTX:    immediate post dominator      @  PC=0x160 (_1.ptx:99) bar.sync 0;
GPGPU-Sim PTX:  5 (potential) branch divergence @  PC=0x168 (_1.ptx:101) @!%p1 bra BB0_8;
GPGPU-Sim PTX:    immediate post dominator      @  PC=0x180 (_1.ptx:109) bar.sync 0;
GPGPU-Sim PTX:  6 (potential) branch divergence @  PC=0x1a8 (_1.ptx:117) @%p6 bra BB0_2;
GPGPU-Sim PTX:    immediate post dominator      @  PC=0x1b0 (_1.ptx:121) mov.u32 %r18, %tid.x;
GPGPU-Sim PTX:  7 (potential) branch divergence @  PC=0x1f0 (_1.ptx:131) @%p7 bra BB0_11;
GPGPU-Sim PTX:    immediate post dominator      @ 
GPGPU-Sim PTX: ... end of reconvergence points for findK
GPGPU-Sim PTX: ... done pre-decoding instructions for 'findK'.
GPGPU-Sim PTX: finished parsing EMBEDDED .ptx file _1.ptx
Adding _cuobjdump_3.ptx with cubin handle 1
GPGPU-Sim PTX: extracting embedded .ptx to temporary file "_ptx_65KBLr"
Running: cat _ptx_65KBLr | sed 's/.version 1.5/.version 1.4/' | sed 's/, texmode_independent//' | sed 's/\(\.extern \.const\[1\] .b8 \w\+\)\[\]/\1\[1\]/' | sed 's/const\[.\]/const\[0\]/g' > _ptx2_9VBdhq
GPGPU-Sim PTX: generating ptxinfo using "$CUDA_INSTALL_PATH/bin/ptxas --gpu-name=sm_20 -v _ptx2_9VBdhq --output-file  /dev/null 2> _ptx_65KBLrinfo"
GPGPU-Sim PTX: Kernel 'findK' : regs=14, lmem=0, smem=0, cmem=96
GPGPU-Sim PTX: removing ptxinfo using "rm -f _ptx_65KBLr _ptx2_9VBdhq _ptx_65KBLrinfo"
GPGPU-Sim PTX: loading globals with explicit initializers... 
GPGPU-Sim PTX: finished loading globals (0 bytes total).
GPGPU-Sim PTX: loading constants with explicit initializers...  done.
GPGPU-Sim PTX: __cudaRegisterFatBinary, fat_cubin_handle = 2, filename=./kernel/kernel_gpu_cuda_wrapper_2.cu
GPGPU-Sim PTX: __cudaRegisterFunction findRangeK : hostFun 0x0x4060d0, fat_cubin_handle = 2
GPGPU-Sim PTX: instruction assembly for function 'findRangeK'...   done.
GPGPU-Sim PTX: finding reconvergence points for 'findRangeK'...
GPGPU-Sim PTX: Finding dominators for 'findRangeK'...
GPGPU-Sim PTX: Finding immediate dominators for 'findRangeK'...
GPGPU-Sim PTX: Finding postdominators for 'findRangeK'...
GPGPU-Sim PTX: Finding immediate postdominators for 'findRangeK'...
GPGPU-Sim PTX: pre-decoding instructions for 'findRangeK'...
GPGPU-Sim PTX: reconvergence points for findRangeK...
GPGPU-Sim PTX:  1 (potential) branch divergence @  PC=0x318 (_2.ptx:65) @%p1 bra BB0_13;
GPGPU-Sim PTX:    immediate post dominator      @  PC=0x4b0 (_2.ptx:156) mov.u32 %r30, %tid.x;
GPGPU-Sim PTX:  2 (potential) branch divergence @  PC=0x380 (_2.ptx:86) @%p2 bra BB0_6;
GPGPU-Sim PTX:    immediate post dominator      @  PC=0x3c8 (_2.ptx:104) ld.global.u64 %rl41, [%rl11];
GPGPU-Sim PTX:  3 (potential) branch divergence @  PC=0x398 (_2.ptx:90) @%p3 bra BB0_6;
GPGPU-Sim PTX:    immediate post dominator      @  PC=0x3c8 (_2.ptx:104) ld.global.u64 %rl41, [%rl11];
GPGPU-Sim PTX:  4 (potential) branch divergence @  PC=0x3b8 (_2.ptx:97) @%p4 bra BB0_6;
GPGPU-Sim PTX:    immediate post dominator      @  PC=0x3c8 (_2.ptx:104) ld.global.u64 %rl41, [%rl11];
GPGPU-Sim PTX:  5 (potential) branch divergence @  PC=0x400 (_2.ptx:112) @%p5 bra BB0_10;
GPGPU-Sim PTX:    immediate post dominator      @  PC=0x448 (_2.ptx:130) bar.sync 0;
GPGPU-Sim PTX:  6 (potential) branch divergence @  PC=0x418 (_2.ptx:116) @%p6 bra BB0_10;
GPGPU-Sim PTX:    immediate post dominator      @  PC=0x448 (_2.ptx:130) bar.sync 0;
GPGPU-Sim PTX:  7 (potential) branch divergence @  PC=0x438 (_2.ptx:123) @%p7 bra BB0_10;
GPGPU-Sim PTX:    immediate post dominator      @  PC=0x448 (_2.ptx:130) bar.sync 0;
GPGPU-Sim PTX:  8 (potential) branch divergence @  PC=0x458 (_2.ptx:133) @%p8 bra BB0_12;
GPGPU-Sim PTX:    immediate post dominator      @  PC=0x480 (_2.ptx:144) bar.sync 0;
GPGPU-Sim PTX:  9 (potential) branch divergence @  PC=0x4a8 (_2.ptx:152) @%p9 bra BB0_2;
GPGPU-Sim PTX:    immediate post dominator      @  PC=0x4b0 (_2.ptx:156) mov.u32 %r30, %tid.x;
GPGPU-Sim PTX: 10 (potential) branch divergence @  PC=0x520 (_2.ptx:175) @%p10 bra BB0_15;
GPGPU-Sim PTX:    immediate post dominator      @  PC=0x538 (_2.ptx:183) bar.sync 0;
GPGPU-Sim PTX: 11 (potential) branch divergence @  PC=0x578 (_2.ptx:193) @%p11 bra BB0_17;
GPGPU-Sim PTX:    immediate post dominator      @ 
GPGPU-Sim PTX: ... end of reconvergence points for findRangeK
GPGPU-Sim PTX: ... done pre-decoding instructions for 'findRangeK'.
GPGPU-Sim PTX: finished parsing EMBEDDED .ptx file _2.ptx
Adding _cuobjdump_7.ptx with cubin handle 2
GPGPU-Sim PTX: extracting embedded .ptx to temporary file "_ptx_rUnYGp"
Running: cat _ptx_rUnYGp | sed 's/.version 1.5/.version 1.4/' | sed 's/, texmode_independent//' | sed 's/\(\.extern \.const\[1\] .b8 \w\+\)\[\]/\1\[1\]/' | sed 's/const\[.\]/const\[0\]/g' > _ptx2_ciuM6o
GPGPU-Sim PTX: generating ptxinfo using "$CUDA_INSTALL_PATH/bin/ptxas --gpu-name=sm_20 -v _ptx2_ciuM6o --output-file  /dev/null 2> _ptx_rUnYGpinfo"
GPGPU-Sim PTX: Kernel 'findRangeK' : regs=19, lmem=0, smem=0, cmem=120
GPGPU-Sim PTX: removing ptxinfo using "rm -f _ptx_rUnYGp _ptx2_ciuM6o _ptx_rUnYGpinfo"
GPGPU-Sim PTX: loading globals with explicit initializers... 
GPGPU-Sim PTX: finished loading globals (0 bytes total).
GPGPU-Sim PTX: loading constants with explicit initializers...  done.
GPGPU-Sim PTX: __cudaRegisterFatBinary, fat_cubin_handle = 3, filename=./util/cuda/cuda.cu
WG size of kernel 1 & 2  = 256 
Selecting device 0
Input File: bt_data/mil.txt 
Command File: bt_data/command.txt 
Command Buffer: 
j 6000 3000
k 10000


Getting input from file bt_data/mil.txt...
Transforming data to a GPU suitable structure...
Tree transformation took 3.671957
Waiting for command
> 
******command: j count=6000, rSize=6000 
knodes_elem=7874, knodes_unit_mem=2068, knodes_mem=16283432
GPGPU-Sim: synchronize waiting for inactive GPU simulation
GPGPU-Sim API: Stream Manager State
GPGPU-Sim: detected inactive GPU simulation thread
# of blocks = 6000, # of threads/block = 256 (ensure that device can handle)

GPGPU-Sim PTX: cudaLaunch for 0x0x4060d0 (mode=performance simulation) on stream 0
GPGPU-Sim PTX: pushing kernel 'findRangeK' to stream 0, gridDim= (6000,1,1) blockDim = (256,1,1) 
kernel 'findRangeK' transfer to GPU hardware scheduler
GPGPU-Sim uArch: Shader 1 bind to kernel 1 'findRangeK'
GPGPU-Sim uArch: CTA/core = 6, limited by: threads regs
GPGPU-Sim uArch: core:  1, cta: 0 initialized @(1,0)
GPGPU-Sim uArch: Shader 2 bind to kernel 1 'findRangeK'
GPGPU-Sim uArch: core:  2, cta: 0 initialized @(1,0)
GPGPU-Sim uArch: Shader 3 bind to kernel 1 'findRangeK'
GPGPU-Sim uArch: core:  3, cta: 0 initialized @(1,0)
GPGPU-Sim uArch: Shader 4 bind to kernel 1 'findRangeK'
GPGPU-Sim uArch: core:  4, cta: 0 initialized @(1,0)
GPGPU-Sim uArch: Shader 5 bind to kernel 1 'findRangeK'
GPGPU-Sim uArch: core:  5, cta: 0 initialized @(1,0)
GPGPU-Sim uArch: Shader 6 bind to kernel 1 'findRangeK'
GPGPU-Sim uArch: core:  6, cta: 0 initialized @(1,0)
GPGPU-Sim uArch: Shader 7 bind to kernel 1 'findRangeK'
GPGPU-Sim uArch: core:  7, cta: 0 initialized @(1,0)
GPGPU-Sim uArch: Shader 8 bind to kernel 1 'findRangeK'
GPGPU-Sim uArch: core:  8, cta: 0 initialized @(1,0)
GPGPU-Sim uArch: Shader 9 bind to kernel 1 'findRangeK'
GPGPU-Sim uArch: core:  9, cta: 0 initialized @(1,0)
GPGPU-Sim uArch: Shader 10 bind to kernel 1 'findRangeK'
GPGPU-Sim uArch: core: 10, cta: 0 initialized @(1,0)
GPGPU-Sim uArch: Shader 11 bind to kernel 1 'findRangeK'
GPGPU-Sim uArch: core: 11, cta: 0 initialized @(1,0)
GPGPU-Sim uArch: Shader 12 bind to kernel 1 'findRangeK'
GPGPU-Sim uArch: core: 12, cta: 0 initialized @(1,0)
GPGPU-Sim uArch: Shader 13 bind to kernel 1 'findRangeK'
GPGPU-Sim uArch: core: 13, cta: 0 initialized @(1,0)
GPGPU-Sim uArch: Shader 14 bind to kernel 1 'findRangeK'
GPGPU-Sim uArch: core: 14, cta: 0 initialized @(1,0)
GPGPU-Sim uArch: Shader 0 bind to kernel 1 'findRangeK'
GPGPU-Sim uArch: core:  0, cta: 0 initialized @(1,0)
GPGPU-Sim uArch: core:  1, cta: 1 initialized @(2,0)
GPGPU-Sim uArch: core:  2, cta: 1 initialized @(2,0)
GPGPU-Sim uArch: core:  3, cta: 1 initialized @(2,0)
GPGPU-Sim uArch: core:  4, cta: 1 initialized @(2,0)
GPGPU-Sim uArch: core:  5, cta: 1 initialized @(2,0)
GPGPU-Sim uArch: core:  6, cta: 1 initialized @(2,0)
GPGPU-Sim uArch: core:  7, cta: 1 initialized @(2,0)
GPGPU-Sim uArch: core:  8, cta: 1 initialized @(2,0)
GPGPU-Sim uArch: core:  9, cta: 1 initialized @(2,0)
GPGPU-Sim uArch: core: 10, cta: 1 initialized @(2,0)
GPGPU-Sim uArch: core: 11, cta: 1 initialized @(2,0)
GPGPU-Sim uArch: core: 12, cta: 1 initialized @(2,0)
GPGPU-Sim uArch: core: 13, cta: 1 initialized @(2,0)
GPGPU-Sim uArch: core: 14, cta: 1 initialized @(2,0)
GPGPU-Sim uArch: core:  0, cta: 1 initialized @(2,0)
GPGPU-Sim uArch: core:  1, cta: 2 initialized @(3,0)
GPGPU-Sim uArch: core:  2, cta: 2 initialized @(3,0)
GPGPU-Sim uArch: core:  3, cta: 2 initialized @(3,0)
GPGPU-Sim uArch: core:  4, cta: 2 initialized @(3,0)
GPGPU-Sim uArch: core:  5, cta: 2 initialized @(3,0)
GPGPU-Sim uArch: core:  6, cta: 2 initialized @(3,0)
GPGPU-Sim uArch: core:  7, cta: 2 initialized @(3,0)
GPGPU-Sim uArch: core:  8, cta: 2 initialized @(3,0)
GPGPU-Sim uArch: core:  9, cta: 2 initialized @(3,0)
GPGPU-Sim uArch: core: 10, cta: 2 initialized @(3,0)
GPGPU-Sim uArch: core: 11, cta: 2 initialized @(3,0)
GPGPU-Sim uArch: core: 12, cta: 2 initialized @(3,0)
GPGPU-Sim uArch: core: 13, cta: 2 initialized @(3,0)
GPGPU-Sim uArch: core: 14, cta: 2 initialized @(3,0)
GPGPU-Sim uArch: core:  0, cta: 2 initialized @(3,0)
GPGPU-Sim uArch: core:  1, cta: 3 initialized @(4,0)
GPGPU-Sim uArch: core:  2, cta: 3 initialized @(4,0)
GPGPU-Sim uArch: core:  3, cta: 3 initialized @(4,0)
GPGPU-Sim uArch: core:  4, cta: 3 initialized @(4,0)
GPGPU-Sim uArch: core:  5, cta: 3 initialized @(4,0)
GPGPU-Sim uArch: core:  6, cta: 3 initialized @(4,0)
GPGPU-Sim uArch: core:  7, cta: 3 initialized @(4,0)
GPGPU-Sim uArch: core:  8, cta: 3 initialized @(4,0)
GPGPU-Sim uArch: core:  9, cta: 3 initialized @(4,0)
GPGPU-Sim uArch: core: 10, cta: 3 initialized @(4,0)
GPGPU-Sim uArch: core: 11, cta: 3 initialized @(4,0)
GPGPU-Sim uArch: core: 12, cta: 3 initialized @(4,0)
GPGPU-Sim uArch: core: 13, cta: 3 initialized @(4,0)
GPGPU-Sim uArch: core: 14, cta: 3 initialized @(4,0)
GPGPU-Sim uArch: core:  0, cta: 3 initialized @(4,0)
GPGPU-Sim uArch: core:  1, cta: 4 initialized @(5,0)
GPGPU-Sim uArch: core:  2, cta: 4 initialized @(5,0)
GPGPU-Sim uArch: core:  3, cta: 4 initialized @(5,0)
GPGPU-Sim uArch: core:  4, cta: 4 initialized @(5,0)
GPGPU-Sim uArch: core:  5, cta: 4 initialized @(5,0)
GPGPU-Sim uArch: core:  6, cta: 4 initialized @(5,0)
GPGPU-Sim uArch: core:  7, cta: 4 initialized @(5,0)
GPGPU-Sim uArch: core:  8, cta: 4 initialized @(5,0)
GPGPU-Sim uArch: core:  9, cta: 4 initialized @(5,0)
GPGPU-Sim uArch: core: 10, cta: 4 initialized @(5,0)
GPGPU-Sim uArch: core: 11, cta: 4 initialized @(5,0)
GPGPU-Sim uArch: core: 12, cta: 4 initialized @(5,0)
GPGPU-Sim uArch: core: 13, cta: 4 initialized @(5,0)
GPGPU-Sim uArch: core: 14, cta: 4 initialized @(5,0)
GPGPU-Sim uArch: core:  0, cta: 4 initialized @(5,0)
GPGPU-Sim uArch: core:  1, cta: 5 initialized @(6,0)
GPGPU-Sim uArch: core:  2, cta: 5 initialized @(6,0)
GPGPU-Sim uArch: core:  3, cta: 5 initialized @(6,0)
GPGPU-Sim uArch: core:  4, cta: 5 initialized @(6,0)
GPGPU-Sim uArch: core:  5, cta: 5 initialized @(6,0)
GPGPU-Sim uArch: core:  6, cta: 5 initialized @(6,0)
GPGPU-Sim uArch: core:  7, cta: 5 initialized @(6,0)
GPGPU-Sim uArch: core:  8, cta: 5 initialized @(6,0)
GPGPU-Sim uArch: core:  9, cta: 5 initialized @(6,0)
GPGPU-Sim uArch: core: 10, cta: 5 initialized @(6,0)
GPGPU-Sim uArch: core: 11, cta: 5 initialized @(6,0)
GPGPU-Sim uArch: core: 12, cta: 5 initialized @(6,0)
GPGPU-Sim uArch: core: 13, cta: 5 initialized @(6,0)
GPGPU-Sim uArch: core: 14, cta: 5 initialized @(6,0)
GPGPU-Sim uArch: core:  0, cta: 5 initialized @(6,0)
GPGPU-Sim uArch: cycles simulated: 500  inst.: 0 (ipc= 0.0) sim_rate=0 (inst/sec) elapsed = 0:0:00:27 / Fri Feb  1 10:03:32 2019
GPGPU-Sim PTX: 100000 instructions simulated : ctaid=(48,0,0) tid=(127,0,0)
GPGPU-Sim PTX: 200000 instructions simulated : ctaid=(25,0,0) tid=(223,0,0)
GPGPU-Sim uArch: cycles simulated: 1000  inst.: 229632 (ipc=229.6) sim_rate=7918 (inst/sec) elapsed = 0:0:00:29 / Fri Feb  1 10:03:34 2019
GPGPU-Sim PTX: 300000 instructions simulated : ctaid=(2,0,0) tid=(159,0,0)
GPGPU-Sim PTX: 400000 instructions simulated : ctaid=(26,0,0) tid=(255,0,0)
GPGPU-Sim PTX: 500000 instructions simulated : ctaid=(76,0,0) tid=(191,0,0)
GPGPU-Sim uArch: cycles simulated: 1500  inst.: 573216 (ipc=382.1) sim_rate=17913 (inst/sec) elapsed = 0:0:00:32 / Fri Feb  1 10:03:37 2019
GPGPU-Sim PTX: 600000 instructions simulated : ctaid=(2,0,0) tid=(127,0,0)
GPGPU-Sim PTX: 700000 instructions simulated : ctaid=(71,0,0) tid=(255,0,0)
GPGPU-Sim uArch: cycles simulated: 2000  inst.: 679104 (ipc=339.6) sim_rate=19973 (inst/sec) elapsed = 0:0:00:34 / Fri Feb  1 10:03:39 2019
GPGPU-Sim uArch: cycles simulated: 2500  inst.: 711591 (ipc=284.6) sim_rate=19766 (inst/sec) elapsed = 0:0:00:36 / Fri Feb  1 10:03:41 2019
GPGPU-Sim uArch: cycles simulated: 3000  inst.: 741167 (ipc=247.1) sim_rate=19504 (inst/sec) elapsed = 0:0:00:38 / Fri Feb  1 10:03:43 2019
GPGPU-Sim uArch: cycles simulated: 3500  inst.: 750955 (ipc=214.6) sim_rate=19255 (inst/sec) elapsed = 0:0:00:39 / Fri Feb  1 10:03:44 2019
GPGPU-Sim uArch: cycles simulated: 4000  inst.: 762505 (ipc=190.6) sim_rate=18597 (inst/sec) elapsed = 0:0:00:41 / Fri Feb  1 10:03:46 2019
GPGPU-Sim PTX: 800000 instructions simulated : ctaid=(34,0,0) tid=(159,0,0)
GPGPU-Sim uArch: cycles simulated: 4500  inst.: 783561 (ipc=174.1) sim_rate=18222 (inst/sec) elapsed = 0:0:00:43 / Fri Feb  1 10:03:48 2019
GPGPU-Sim uArch: cycles simulated: 5000  inst.: 805469 (ipc=161.1) sim_rate=17899 (inst/sec) elapsed = 0:0:00:45 / Fri Feb  1 10:03:50 2019
GPGPU-Sim uArch: cycles simulated: 5500  inst.: 837334 (ipc=152.2) sim_rate=17815 (inst/sec) elapsed = 0:0:00:47 / Fri Feb  1 10:03:52 2019
GPGPU-Sim PTX: 900000 instructions simulated : ctaid=(73,0,0) tid=(66,0,0)
GPGPU-Sim uArch: cycles simulated: 6000  inst.: 869726 (ipc=145.0) sim_rate=18119 (inst/sec) elapsed = 0:0:00:48 / Fri Feb  1 10:03:53 2019
GPGPU-Sim uArch: cycles simulated: 6500  inst.: 900821 (ipc=138.6) sim_rate=18016 (inst/sec) elapsed = 0:0:00:50 / Fri Feb  1 10:03:55 2019
GPGPU-Sim uArch: cycles simulated: 7000  inst.: 938053 (ipc=134.0) sim_rate=18039 (inst/sec) elapsed = 0:0:00:52 / Fri Feb  1 10:03:57 2019
GPGPU-Sim PTX: 1000000 instructions simulated : ctaid=(39,0,0) tid=(149,0,0)
GPGPU-Sim uArch: cycles simulated: 7500  inst.: 977688 (ipc=130.4) sim_rate=17776 (inst/sec) elapsed = 0:0:00:55 / Fri Feb  1 10:04:00 2019
GPGPU-Sim uArch: cycles simulated: 8000  inst.: 1021796 (ipc=127.7) sim_rate=18246 (inst/sec) elapsed = 0:0:00:56 / Fri Feb  1 10:04:01 2019
GPGPU-Sim uArch: cycles simulated: 8500  inst.: 1054679 (ipc=124.1) sim_rate=18184 (inst/sec) elapsed = 0:0:00:58 / Fri Feb  1 10:04:03 2019
GPGPU-Sim PTX: 1100000 instructions simulated : ctaid=(31,0,0) tid=(213,0,0)
GPGPU-Sim uArch: cycles simulated: 9000  inst.: 1089206 (ipc=121.0) sim_rate=18461 (inst/sec) elapsed = 0:0:00:59 / Fri Feb  1 10:04:04 2019
GPGPU-Sim uArch: cycles simulated: 9500  inst.: 1143699 (ipc=120.4) sim_rate=18749 (inst/sec) elapsed = 0:0:01:01 / Fri Feb  1 10:04:06 2019
GPGPU-Sim PTX: 1200000 instructions simulated : ctaid=(27,0,0) tid=(166,0,0)
GPGPU-Sim uArch: cycles simulated: 10000  inst.: 1208379 (ipc=120.8) sim_rate=19180 (inst/sec) elapsed = 0:0:01:03 / Fri Feb  1 10:04:08 2019
GPGPU-Sim PTX: 1300000 instructions simulated : ctaid=(28,0,0) tid=(155,0,0)
GPGPU-Sim uArch: cycles simulated: 10500  inst.: 1279825 (ipc=121.9) sim_rate=19689 (inst/sec) elapsed = 0:0:01:05 / Fri Feb  1 10:04:10 2019
GPGPU-Sim uArch: cycles simulated: 11000  inst.: 1325503 (ipc=120.5) sim_rate=19783 (inst/sec) elapsed = 0:0:01:07 / Fri Feb  1 10:04:12 2019
GPGPU-Sim PTX: 1400000 instructions simulated : ctaid=(58,0,0) tid=(68,0,0)
GPGPU-Sim uArch: cycles simulated: 11500  inst.: 1372799 (ipc=119.4) sim_rate=19895 (inst/sec) elapsed = 0:0:01:09 / Fri Feb  1 10:04:14 2019
GPGPU-Sim uArch: cycles simulated: 12000  inst.: 1430356 (ipc=119.2) sim_rate=20145 (inst/sec) elapsed = 0:0:01:11 / Fri Feb  1 10:04:16 2019
GPGPU-Sim PTX: 1500000 instructions simulated : ctaid=(41,0,0) tid=(51,0,0)
GPGPU-Sim uArch: cycles simulated: 12500  inst.: 1503375 (ipc=120.3) sim_rate=20594 (inst/sec) elapsed = 0:0:01:13 / Fri Feb  1 10:04:18 2019
GPGPU-Sim PTX: 1600000 instructions simulated : ctaid=(28,0,0) tid=(231,0,0)
GPGPU-Sim uArch: cycles simulated: 13000  inst.: 1564296 (ipc=120.3) sim_rate=20857 (inst/sec) elapsed = 0:0:01:15 / Fri Feb  1 10:04:20 2019
GPGPU-Sim uArch: cycles simulated: 13500  inst.: 1638042 (ipc=121.3) sim_rate=21273 (inst/sec) elapsed = 0:0:01:17 / Fri Feb  1 10:04:22 2019
GPGPU-Sim PTX: 1700000 instructions simulated : ctaid=(19,0,0) tid=(215,0,0)
GPGPU-Sim uArch: cycles simulated: 14000  inst.: 1708547 (ipc=122.0) sim_rate=21627 (inst/sec) elapsed = 0:0:01:19 / Fri Feb  1 10:04:24 2019
GPGPU-Sim PTX: 1800000 instructions simulated : ctaid=(43,0,0) tid=(201,0,0)
GPGPU-Sim uArch: cycles simulated: 14500  inst.: 1793902 (ipc=123.7) sim_rate=22146 (inst/sec) elapsed = 0:0:01:21 / Fri Feb  1 10:04:26 2019
GPGPU-Sim PTX: 1900000 instructions simulated : ctaid=(59,0,0) tid=(36,0,0)
GPGPU-Sim uArch: cycles simulated: 15000  inst.: 1887690 (ipc=125.8) sim_rate=22743 (inst/sec) elapsed = 0:0:01:23 / Fri Feb  1 10:04:28 2019
GPGPU-Sim PTX: 2000000 instructions simulated : ctaid=(32,0,0) tid=(122,0,0)
GPGPU-Sim uArch: cycles simulated: 15500  inst.: 1963873 (ipc=126.7) sim_rate=23104 (inst/sec) elapsed = 0:0:01:25 / Fri Feb  1 10:04:30 2019
GPGPU-Sim PTX: 2100000 instructions simulated : ctaid=(84,0,0) tid=(58,0,0)
GPGPU-Sim uArch: cycles simulated: 16000  inst.: 2040163 (ipc=127.5) sim_rate=23450 (inst/sec) elapsed = 0:0:01:27 / Fri Feb  1 10:04:32 2019
GPGPU-Sim uArch: Shader 9 finished CTA #4 (16384,0), 5 CTAs running
GPGPU-Sim uArch: core:  9, cta: 4 initialized @(16385,0)
GPGPU-Sim uArch: Shader 4 finished CTA #1 (16403,0), 5 CTAs running
GPGPU-Sim uArch: core:  4, cta: 1 initialized @(16404,0)
GPGPU-Sim PTX: 2200000 instructions simulated : ctaid=(91,0,0) tid=(143,0,0)
GPGPU-Sim uArch: Shader 4 finished CTA #0 (16433,0), 5 CTAs running
GPGPU-Sim uArch: core:  4, cta: 0 initialized @(16434,0)
GPGPU-Sim uArch: Shader 9 finished CTA #0 (16436,0), 5 CTAs running
GPGPU-Sim uArch: core:  9, cta: 0 initialized @(16437,0)
GPGPU-Sim uArch: cycles simulated: 16500  inst.: 2139761 (ipc=129.7) sim_rate=24042 (inst/sec) elapsed = 0:0:01:29 / Fri Feb  1 10:04:34 2019
GPGPU-Sim uArch: Shader 2 finished CTA #0 (16583,0), 5 CTAs running
GPGPU-Sim uArch: core:  2, cta: 0 initialized @(16584,0)
GPGPU-Sim uArch: Shader 9 finished CTA #2 (16799,0), 5 CTAs running
GPGPU-Sim uArch: core:  9, cta: 2 initialized @(16800,0)
GPGPU-Sim PTX: 2300000 instructions simulated : ctaid=(92,0,0) tid=(254,0,0)
GPGPU-Sim uArch: Shader 7 finished CTA #2 (16896,0), 5 CTAs running
GPGPU-Sim uArch: core:  7, cta: 2 initialized @(16897,0)
GPGPU-Sim uArch: Shader 4 finished CTA #2 (16982,0), 5 CTAs running
GPGPU-Sim uArch: core:  4, cta: 2 initialized @(16983,0)
GPGPU-Sim uArch: cycles simulated: 17000  inst.: 2260497 (ipc=133.0) sim_rate=24570 (inst/sec) elapsed = 0:0:01:32 / Fri Feb  1 10:04:37 2019
GPGPU-Sim uArch: Shader 7 finished CTA #0 (17107,0), 5 CTAs running
GPGPU-Sim uArch: core:  7, cta: 0 initialized @(17108,0)
GPGPU-Sim uArch: Shader 3 finished CTA #2 (17109,0), 5 CTAs running
GPGPU-Sim uArch: core:  3, cta: 2 initialized @(17110,0)
GPGPU-Sim uArch: Shader 9 finished CTA #1 (17125,0), 5 CTAs running
GPGPU-Sim uArch: core:  9, cta: 1 initialized @(17126,0)
GPGPU-Sim uArch: Shader 3 finished CTA #3 (17137,0), 5 CTAs running
GPGPU-Sim uArch: core:  3, cta: 3 initialized @(17138,0)
GPGPU-Sim uArch: Shader 3 finished CTA #0 (17276,0), 5 CTAs running
GPGPU-Sim uArch: core:  3, cta: 0 initialized @(17277,0)
GPGPU-Sim PTX: 2400000 instructions simulated : ctaid=(101,0,0) tid=(203,0,0)
GPGPU-Sim uArch: Shader 8 finished CTA #3 (17379,0), 5 CTAs running
GPGPU-Sim uArch: core:  8, cta: 3 initialized @(17380,0)
GPGPU-Sim uArch: Shader 3 finished CTA #1 (17399,0), 5 CTAs running
GPGPU-Sim uArch: core:  3, cta: 1 initialized @(17400,0)
GPGPU-Sim uArch: Shader 4 finished CTA #3 (17463,0), 5 CTAs running
GPGPU-Sim uArch: core:  4, cta: 3 initialized @(17464,0)
GPGPU-Sim uArch: cycles simulated: 17500  inst.: 2353115 (ipc=134.5) sim_rate=24769 (inst/sec) elapsed = 0:0:01:35 / Fri Feb  1 10:04:40 2019
GPGPU-Sim uArch: Shader 9 finished CTA #3 (17517,0), 5 CTAs running
GPGPU-Sim uArch: core:  9, cta: 3 initialized @(17518,0)
GPGPU-Sim uArch: Shader 2 finished CTA #5 (17523,0), 5 CTAs running
GPGPU-Sim uArch: core:  2, cta: 5 initialized @(17524,0)
GPGPU-Sim uArch: Shader 2 finished CTA #3 (17535,0), 5 CTAs running
GPGPU-Sim uArch: core:  2, cta: 3 initialized @(17536,0)
GPGPU-Sim uArch: Shader 8 finished CTA #2 (17543,0), 5 CTAs running
GPGPU-Sim uArch: core:  8, cta: 2 initialized @(17544,0)
GPGPU-Sim PTX: 2500000 instructions simulated : ctaid=(101,0,0) tid=(82,0,0)
GPGPU-Sim uArch: Shader 0 finished CTA #2 (17792,0), 5 CTAs running
GPGPU-Sim uArch: core:  0, cta: 2 initialized @(17793,0)
GPGPU-Sim uArch: Shader 2 finished CTA #2 (17794,0), 5 CTAs running
GPGPU-Sim uArch: core:  2, cta: 2 initialized @(17795,0)
GPGPU-Sim uArch: Shader 7 finished CTA #3 (17797,0), 5 CTAs running
GPGPU-Sim uArch: core:  7, cta: 3 initialized @(17798,0)
GPGPU-Sim uArch: Shader 8 finished CTA #5 (17823,0), 5 CTAs running
GPGPU-Sim uArch: core:  8, cta: 5 initialized @(17824,0)
GPGPU-Sim uArch: Shader 2 finished CTA #1 (17827,0), 5 CTAs running
GPGPU-Sim uArch: core:  2, cta: 1 initialized @(17828,0)
GPGPU-Sim uArch: Shader 13 finished CTA #0 (17831,0), 5 CTAs running
GPGPU-Sim uArch: core: 13, cta: 0 initialized @(17832,0)
GPGPU-Sim uArch: Shader 13 finished CTA #1 (17840,0), 5 CTAs running
GPGPU-Sim uArch: core: 13, cta: 1 initialized @(17841,0)
GPGPU-Sim uArch: Shader 2 finished CTA #4 (17846,0), 5 CTAs running
GPGPU-Sim uArch: core:  2, cta: 4 initialized @(17847,0)
GPGPU-Sim uArch: Shader 11 finished CTA #0 (17922,0), 5 CTAs running
GPGPU-Sim uArch: core: 11, cta: 0 initialized @(17923,0)
GPGPU-Sim uArch: Shader 11 finished CTA #2 (17947,0), 5 CTAs running
GPGPU-Sim uArch: core: 11, cta: 2 initialized @(17948,0)
GPGPU-Sim uArch: Shader 0 finished CTA #3 (17990,0), 5 CTAs running
GPGPU-Sim uArch: core:  0, cta: 3 initialized @(17991,0)
GPGPU-Sim uArch: cycles simulated: 18000  inst.: 2489883 (ipc=138.3) sim_rate=25406 (inst/sec) elapsed = 0:0:01:38 / Fri Feb  1 10:04:43 2019
GPGPU-Sim PTX: 2600000 instructions simulated : ctaid=(74,0,0) tid=(104,0,0)
GPGPU-Sim uArch: Shader 11 finished CTA #1 (18064,0), 5 CTAs running
GPGPU-Sim uArch: core: 11, cta: 1 initialized @(18065,0)
GPGPU-Sim uArch: Shader 7 finished CTA #1 (18066,0), 5 CTAs running
GPGPU-Sim uArch: core:  7, cta: 1 initialized @(18067,0)
GPGPU-Sim uArch: Shader 0 finished CTA #1 (18069,0), 5 CTAs running
GPGPU-Sim uArch: core:  0, cta: 1 initialized @(18070,0)
GPGPU-Sim uArch: Shader 7 finished CTA #5 (18086,0), 5 CTAs running
GPGPU-Sim uArch: core:  7, cta: 5 initialized @(18087,0)
GPGPU-Sim uArch: Shader 5 finished CTA #4 (18247,0), 5 CTAs running
GPGPU-Sim uArch: core:  5, cta: 4 initialized @(18248,0)
GPGPU-Sim uArch: Shader 5 finished CTA #5 (18270,0), 5 CTAs running
GPGPU-Sim uArch: core:  5, cta: 5 initialized @(18271,0)
GPGPU-Sim uArch: Shader 9 finished CTA #5 (18374,0), 5 CTAs running
GPGPU-Sim uArch: core:  9, cta: 5 initialized @(18375,0)
GPGPU-Sim uArch: Shader 11 finished CTA #4 (18419,0), 5 CTAs running
GPGPU-Sim uArch: core: 11, cta: 4 initialized @(18420,0)
GPGPU-Sim uArch: cycles simulated: 18500  inst.: 2595646 (ipc=140.3) sim_rate=25699 (inst/sec) elapsed = 0:0:01:41 / Fri Feb  1 10:04:46 2019
GPGPU-Sim PTX: 2700000 instructions simulated : ctaid=(115,0,0) tid=(169,0,0)
GPGPU-Sim uArch: Shader 11 finished CTA #3 (18593,0), 5 CTAs running
GPGPU-Sim uArch: core: 11, cta: 3 initialized @(18594,0)
GPGPU-Sim uArch: Shader 10 finished CTA #1 (18619,0), 5 CTAs running
GPGPU-Sim uArch: core: 10, cta: 1 initialized @(18620,0)
GPGPU-Sim uArch: Shader 4 finished CTA #4 (18731,0), 5 CTAs running
GPGPU-Sim uArch: core:  4, cta: 4 initialized @(18732,0)
GPGPU-Sim uArch: Shader 13 finished CTA #2 (18961,0), 5 CTAs running
GPGPU-Sim uArch: core: 13, cta: 2 initialized @(18962,0)
GPGPU-Sim uArch: cycles simulated: 19000  inst.: 2684030 (ipc=141.3) sim_rate=25807 (inst/sec) elapsed = 0:0:01:44 / Fri Feb  1 10:04:49 2019
GPGPU-Sim PTX: 2800000 instructions simulated : ctaid=(122,0,0) tid=(226,0,0)
GPGPU-Sim uArch: Shader 10 finished CTA #0 (19249,0), 5 CTAs running
GPGPU-Sim uArch: core: 10, cta: 0 initialized @(19250,0)
GPGPU-Sim uArch: Shader 0 finished CTA #0 (19412,0), 5 CTAs running
GPGPU-Sim uArch: core:  0, cta: 0 initialized @(19413,0)
GPGPU-Sim uArch: Shader 6 finished CTA #0 (19444,0), 5 CTAs running
GPGPU-Sim uArch: core:  6, cta: 0 initialized @(19445,0)
GPGPU-Sim uArch: Shader 8 finished CTA #1 (19448,0), 5 CTAs running
GPGPU-Sim uArch: core:  8, cta: 1 initialized @(19449,0)
GPGPU-Sim uArch: Shader 7 finished CTA #4 (19454,0), 5 CTAs running
GPGPU-Sim uArch: core:  7, cta: 4 initialized @(19455,0)
GPGPU-Sim uArch: cycles simulated: 19500  inst.: 2758261 (ipc=141.4) sim_rate=26021 (inst/sec) elapsed = 0:0:01:46 / Fri Feb  1 10:04:51 2019
GPGPU-Sim uArch: Shader 11 finished CTA #5 (19571,0), 5 CTAs running
GPGPU-Sim uArch: core: 11, cta: 5 initialized @(19572,0)
GPGPU-Sim uArch: Shader 14 finished CTA #3 (19699,0), 5 CTAs running
GPGPU-Sim uArch: core: 14, cta: 3 initialized @(19700,0)
GPGPU-Sim PTX: 2900000 instructions simulated : ctaid=(104,0,0) tid=(251,0,0)
GPGPU-Sim uArch: Shader 3 finished CTA #4 (19880,0), 5 CTAs running
GPGPU-Sim uArch: core:  3, cta: 4 initialized @(19881,0)
GPGPU-Sim uArch: Shader 6 finished CTA #1 (19888,0), 5 CTAs running
GPGPU-Sim uArch: core:  6, cta: 1 initialized @(19889,0)
GPGPU-Sim uArch: Shader 14 finished CTA #0 (19900,0), 5 CTAs running
GPGPU-Sim uArch: core: 14, cta: 0 initialized @(19901,0)
GPGPU-Sim uArch: Shader 1 finished CTA #2 (19906,0), 5 CTAs running
GPGPU-Sim uArch: core:  1, cta: 2 initialized @(19907,0)
GPGPU-Sim uArch: Shader 1 finished CTA #3 (19915,0), 5 CTAs running
GPGPU-Sim uArch: core:  1, cta: 3 initialized @(19916,0)
GPGPU-Sim uArch: Shader 4 finished CTA #5 (19916,0), 5 CTAs running
GPGPU-Sim uArch: core:  4, cta: 5 initialized @(19917,0)
GPGPU-Sim uArch: Shader 8 finished CTA #0 (19921,0), 5 CTAs running
GPGPU-Sim uArch: core:  8, cta: 0 initialized @(19922,0)
GPGPU-Sim uArch: Shader 10 finished CTA #2 (19950,0), 5 CTAs running
GPGPU-Sim uArch: core: 10, cta: 2 initialized @(19951,0)
GPGPU-Sim uArch: Shader 3 finished CTA #5 (19960,0), 5 CTAs running
GPGPU-Sim uArch: core:  3, cta: 5 initialized @(19961,0)
GPGPU-Sim uArch: Shader 8 finished CTA #4 (19972,0), 5 CTAs running
GPGPU-Sim uArch: core:  8, cta: 4 initialized @(19973,0)
GPGPU-Sim uArch: Shader 5 finished CTA #0 (19978,0), 5 CTAs running
GPGPU-Sim uArch: core:  5, cta: 0 initialized @(19979,0)
GPGPU-Sim uArch: cycles simulated: 20000  inst.: 2846295 (ipc=142.3) sim_rate=26112 (inst/sec) elapsed = 0:0:01:49 / Fri Feb  1 10:04:54 2019
GPGPU-Sim uArch: Shader 1 finished CTA #4 (20128,0), 5 CTAs running
GPGPU-Sim uArch: core:  1, cta: 4 initialized @(20129,0)
GPGPU-Sim PTX: 3000000 instructions simulated : ctaid=(147,0,0) tid=(247,0,0)
GPGPU-Sim uArch: Shader 12 finished CTA #0 (20138,0), 5 CTAs running
GPGPU-Sim uArch: core: 12, cta: 0 initialized @(20139,0)
GPGPU-Sim uArch: Shader 1 finished CTA #1 (20141,0), 5 CTAs running
GPGPU-Sim uArch: core:  1, cta: 1 initialized @(20142,0)
GPGPU-Sim uArch: Shader 12 finished CTA #3 (20147,0), 5 CTAs running
GPGPU-Sim uArch: core: 12, cta: 3 initialized @(20148,0)
GPGPU-Sim uArch: Shader 1 finished CTA #0 (20152,0), 5 CTAs running
GPGPU-Sim uArch: core:  1, cta: 0 initialized @(20153,0)
GPGPU-Sim uArch: Shader 5 finished CTA #2 (20331,0), 5 CTAs running
GPGPU-Sim uArch: core:  5, cta: 2 initialized @(20332,0)
GPGPU-Sim uArch: Shader 5 finished CTA #1 (20348,0), 5 CTAs running
GPGPU-Sim uArch: core:  5, cta: 1 initialized @(20349,0)
GPGPU-Sim uArch: Shader 10 finished CTA #3 (20378,0), 5 CTAs running
GPGPU-Sim uArch: core: 10, cta: 3 initialized @(20379,0)
GPGPU-Sim uArch: Shader 10 finished CTA #4 (20389,0), 5 CTAs running
GPGPU-Sim uArch: core: 10, cta: 4 initialized @(20390,0)
GPGPU-Sim uArch: Shader 13 finished CTA #3 (20407,0), 5 CTAs running
GPGPU-Sim uArch: core: 13, cta: 3 initialized @(20408,0)
GPGPU-Sim uArch: Shader 13 finished CTA #4 (20416,0), 5 CTAs running
GPGPU-Sim uArch: core: 13, cta: 4 initialized @(20417,0)
GPGPU-Sim uArch: Shader 5 finished CTA #3 (20430,0), 5 CTAs running
GPGPU-Sim uArch: core:  5, cta: 3 initialized @(20431,0)
GPGPU-Sim PTX: 3100000 instructions simulated : ctaid=(157,0,0) tid=(32,0,0)
GPGPU-Sim uArch: Shader 12 finished CTA #1 (20457,0), 5 CTAs running
GPGPU-Sim uArch: core: 12, cta: 1 initialized @(20458,0)
GPGPU-Sim uArch: Shader 6 finished CTA #2 (20488,0), 5 CTAs running
GPGPU-Sim uArch: core:  6, cta: 2 initialized @(20489,0)
GPGPU-Sim uArch: cycles simulated: 20500  inst.: 3004764 (ipc=146.6) sim_rate=26828 (inst/sec) elapsed = 0:0:01:52 / Fri Feb  1 10:04:57 2019
GPGPU-Sim uArch: Shader 6 finished CTA #3 (20540,0), 5 CTAs running
GPGPU-Sim uArch: core:  6, cta: 3 initialized @(20541,0)
GPGPU-Sim uArch: Shader 0 finished CTA #4 (20584,0), 5 CTAs running
GPGPU-Sim uArch: core:  0, cta: 4 initialized @(20585,0)
GPGPU-Sim PTX: 3200000 instructions simulated : ctaid=(159,0,0) tid=(127,0,0)
GPGPU-Sim uArch: Shader 0 finished CTA #5 (20938,0), 5 CTAs running
GPGPU-Sim uArch: core:  0, cta: 5 initialized @(20939,0)
GPGPU-Sim uArch: Shader 10 finished CTA #5 (20982,0), 5 CTAs running
GPGPU-Sim uArch: core: 10, cta: 5 initialized @(20983,0)
GPGPU-Sim uArch: cycles simulated: 21000  inst.: 3116420 (ipc=148.4) sim_rate=27337 (inst/sec) elapsed = 0:0:01:54 / Fri Feb  1 10:04:59 2019
GPGPU-Sim uArch: Shader 14 finished CTA #1 (21087,0), 5 CTAs running
GPGPU-Sim uArch: core: 14, cta: 1 initialized @(21088,0)
GPGPU-Sim uArch: Shader 12 finished CTA #2 (21129,0), 5 CTAs running
GPGPU-Sim uArch: core: 12, cta: 2 initialized @(21130,0)
GPGPU-Sim uArch: Shader 14 finished CTA #2 (21191,0), 5 CTAs running
GPGPU-Sim uArch: core: 14, cta: 2 initialized @(21192,0)
GPGPU-Sim PTX: 3300000 instructions simulated : ctaid=(111,0,0) tid=(172,0,0)
GPGPU-Sim uArch: cycles simulated: 21500  inst.: 3185860 (ipc=148.2) sim_rate=27703 (inst/sec) elapsed = 0:0:01:55 / Fri Feb  1 10:05:00 2019
GPGPU-Sim uArch: Shader 14 finished CTA #5 (21770,0), 5 CTAs running
GPGPU-Sim uArch: core: 14, cta: 5 initialized @(21771,0)
GPGPU-Sim uArch: cycles simulated: 22000  inst.: 3227318 (ipc=146.7) sim_rate=27583 (inst/sec) elapsed = 0:0:01:57 / Fri Feb  1 10:05:02 2019
GPGPU-Sim uArch: Shader 12 finished CTA #5 (22296,0), 5 CTAs running
GPGPU-Sim uArch: core: 12, cta: 5 initialized @(22297,0)
GPGPU-Sim uArch: cycles simulated: 22500  inst.: 3268593 (ipc=145.3) sim_rate=27467 (inst/sec) elapsed = 0:0:01:59 / Fri Feb  1 10:05:04 2019
GPGPU-Sim PTX: 3400000 instructions simulated : ctaid=(162,0,0) tid=(194,0,0)
GPGPU-Sim uArch: cycles simulated: 23000  inst.: 3311051 (ipc=144.0) sim_rate=27592 (inst/sec) elapsed = 0:0:02:00 / Fri Feb  1 10:05:05 2019
GPGPU-Sim uArch: cycles simulated: 23500  inst.: 3366420 (ipc=143.3) sim_rate=27593 (inst/sec) elapsed = 0:0:02:02 / Fri Feb  1 10:05:07 2019
GPGPU-Sim PTX: 3500000 instructions simulated : ctaid=(172,0,0) tid=(194,0,0)
GPGPU-Sim uArch: Shader 13 finished CTA #5 (23586,0), 5 CTAs running
GPGPU-Sim uArch: core: 13, cta: 5 initialized @(23587,0)
GPGPU-Sim uArch: Shader 12 finished CTA #4 (23651,0), 5 CTAs running
GPGPU-Sim uArch: core: 12, cta: 4 initialized @(23652,0)
GPGPU-Sim uArch: cycles simulated: 24000  inst.: 3446872 (ipc=143.6) sim_rate=27797 (inst/sec) elapsed = 0:0:02:04 / Fri Feb  1 10:05:09 2019
GPGPU-Sim uArch: Shader 6 finished CTA #4 (24129,0), 5 CTAs running
GPGPU-Sim uArch: core:  6, cta: 4 initialized @(24130,0)
GPGPU-Sim PTX: 3600000 instructions simulated : ctaid=(107,0,0) tid=(169,0,0)
GPGPU-Sim uArch: Shader 6 finished CTA #5 (24471,0), 5 CTAs running
GPGPU-Sim uArch: core:  6, cta: 5 initialized @(24472,0)
GPGPU-Sim uArch: cycles simulated: 24500  inst.: 3515388 (ipc=143.5) sim_rate=27899 (inst/sec) elapsed = 0:0:02:06 / Fri Feb  1 10:05:11 2019
GPGPU-Sim PTX: 3700000 instructions simulated : ctaid=(120,0,0) tid=(253,0,0)
GPGPU-Sim uArch: cycles simulated: 25000  inst.: 3591177 (ipc=143.6) sim_rate=28056 (inst/sec) elapsed = 0:0:02:08 / Fri Feb  1 10:05:13 2019
GPGPU-Sim uArch: Shader 14 finished CTA #4 (25314,0), 5 CTAs running
GPGPU-Sim uArch: core: 14, cta: 4 initialized @(25315,0)
GPGPU-Sim uArch: cycles simulated: 25500  inst.: 3661180 (ipc=143.6) sim_rate=28162 (inst/sec) elapsed = 0:0:02:10 / Fri Feb  1 10:05:15 2019
GPGPU-Sim PTX: 3800000 instructions simulated : ctaid=(92,0,0) tid=(248,0,0)
GPGPU-Sim uArch: Shader 1 finished CTA #5 (25806,0), 5 CTAs running
GPGPU-Sim uArch: core:  1, cta: 5 initialized @(25807,0)
GPGPU-Sim uArch: cycles simulated: 26000  inst.: 3730665 (ipc=143.5) sim_rate=28050 (inst/sec) elapsed = 0:0:02:13 / Fri Feb  1 10:05:18 2019
GPGPU-Sim PTX: 3900000 instructions simulated : ctaid=(147,0,0) tid=(73,0,0)
GPGPU-Sim uArch: Shader 2 finished CTA #0 (26429,0), 5 CTAs running
GPGPU-Sim uArch: core:  2, cta: 0 initialized @(26430,0)
GPGPU-Sim uArch: cycles simulated: 26500  inst.: 3806963 (ipc=143.7) sim_rate=28199 (inst/sec) elapsed = 0:0:02:15 / Fri Feb  1 10:05:20 2019
GPGPU-Sim uArch: Shader 2 finished CTA #5 (26864,0), 5 CTAs running
GPGPU-Sim uArch: core:  2, cta: 5 initialized @(26865,0)
GPGPU-Sim PTX: 4000000 instructions simulated : ctaid=(93,0,0) tid=(23,0,0)
GPGPU-Sim uArch: cycles simulated: 27000  inst.: 3877629 (ipc=143.6) sim_rate=28303 (inst/sec) elapsed = 0:0:02:17 / Fri Feb  1 10:05:22 2019
GPGPU-Sim uArch: Shader 9 finished CTA #4 (27097,0), 5 CTAs running
GPGPU-Sim uArch: core:  9, cta: 4 initialized @(27098,0)
GPGPU-Sim PTX: 4100000 instructions simulated : ctaid=(119,0,0) tid=(173,0,0)
GPGPU-Sim uArch: cycles simulated: 27500  inst.: 3963203 (ipc=144.1) sim_rate=28308 (inst/sec) elapsed = 0:0:02:20 / Fri Feb  1 10:05:25 2019
GPGPU-Sim uArch: Shader 9 finished CTA #0 (27508,0), 5 CTAs running
GPGPU-Sim uArch: core:  9, cta: 0 initialized @(27509,0)
GPGPU-Sim uArch: Shader 9 finished CTA #2 (27831,0), 5 CTAs running
GPGPU-Sim uArch: core:  9, cta: 2 initialized @(27832,0)
GPGPU-Sim uArch: cycles simulated: 28000  inst.: 4042809 (ipc=144.4) sim_rate=28470 (inst/sec) elapsed = 0:0:02:22 / Fri Feb  1 10:05:27 2019
GPGPU-Sim PTX: 4200000 instructions simulated : ctaid=(157,0,0) tid=(39,0,0)
GPGPU-Sim uArch: Shader 9 finished CTA #1 (28189,0), 5 CTAs running
GPGPU-Sim uArch: core:  9, cta: 1 initialized @(28190,0)
GPGPU-Sim uArch: Shader 4 finished CTA #0 (28193,0), 5 CTAs running
GPGPU-Sim uArch: core:  4, cta: 0 initialized @(28194,0)
GPGPU-Sim uArch: cycles simulated: 28500  inst.: 4120121 (ipc=144.6) sim_rate=28414 (inst/sec) elapsed = 0:0:02:25 / Fri Feb  1 10:05:30 2019
GPGPU-Sim uArch: Shader 2 finished CTA #3 (28658,0), 5 CTAs running
GPGPU-Sim uArch: core:  2, cta: 3 initialized @(28659,0)
GPGPU-Sim uArch: Shader 2 finished CTA #2 (28673,0), 5 CTAs running
GPGPU-Sim uArch: core:  2, cta: 2 initialized @(28674,0)
GPGPU-Sim PTX: 4300000 instructions simulated : ctaid=(148,0,0) tid=(36,0,0)
GPGPU-Sim uArch: Shader 7 finished CTA #2 (28695,0), 5 CTAs running
GPGPU-Sim uArch: core:  7, cta: 2 initialized @(28696,0)
GPGPU-Sim uArch: cycles simulated: 29000  inst.: 4216112 (ipc=145.4) sim_rate=28681 (inst/sec) elapsed = 0:0:02:27 / Fri Feb  1 10:05:32 2019
GPGPU-Sim uArch: Shader 7 finished CTA #0 (29144,0), 5 CTAs running
GPGPU-Sim uArch: core:  7, cta: 0 initialized @(29145,0)
GPGPU-Sim uArch: Shader 4 finished CTA #1 (29221,0), 5 CTAs running
GPGPU-Sim uArch: core:  4, cta: 1 initialized @(29222,0)
GPGPU-Sim PTX: 4400000 instructions simulated : ctaid=(101,0,0) tid=(109,0,0)
GPGPU-Sim uArch: cycles simulated: 29500  inst.: 4287820 (ipc=145.3) sim_rate=28777 (inst/sec) elapsed = 0:0:02:29 / Fri Feb  1 10:05:34 2019
GPGPU-Sim uArch: Shader 2 finished CTA #4 (29589,0), 5 CTAs running
GPGPU-Sim uArch: core:  2, cta: 4 initialized @(29590,0)
GPGPU-Sim uArch: Shader 2 finished CTA #1 (29934,0), 5 CTAs running
GPGPU-Sim uArch: core:  2, cta: 1 initialized @(29935,0)
GPGPU-Sim uArch: Shader 7 finished CTA #1 (29952,0), 5 CTAs running
GPGPU-Sim uArch: core:  7, cta: 1 initialized @(29953,0)
GPGPU-Sim uArch: cycles simulated: 30000  inst.: 4344704 (ipc=144.8) sim_rate=28964 (inst/sec) elapsed = 0:0:02:30 / Fri Feb  1 10:05:35 2019
GPGPU-Sim PTX: 4500000 instructions simulated : ctaid=(193,0,0) tid=(178,0,0)
GPGPU-Sim uArch: Shader 3 finished CTA #2 (30414,0), 5 CTAs running
GPGPU-Sim uArch: core:  3, cta: 2 initialized @(30415,0)
GPGPU-Sim uArch: Shader 3 finished CTA #3 (30437,0), 5 CTAs running
GPGPU-Sim uArch: core:  3, cta: 3 initialized @(30438,0)
GPGPU-Sim uArch: cycles simulated: 30500  inst.: 4401613 (ipc=144.3) sim_rate=28957 (inst/sec) elapsed = 0:0:02:32 / Fri Feb  1 10:05:37 2019
GPGPU-Sim PTX: 4600000 instructions simulated : ctaid=(134,0,0) tid=(139,0,0)
GPGPU-Sim uArch: Shader 4 finished CTA #2 (30734,0), 5 CTAs running
GPGPU-Sim uArch: core:  4, cta: 2 initialized @(30735,0)
GPGPU-Sim uArch: Shader 3 finished CTA #1 (30774,0), 5 CTAs running
GPGPU-Sim uArch: core:  3, cta: 1 initialized @(30775,0)
GPGPU-Sim uArch: Shader 9 finished CTA #5 (30780,0), 5 CTAs running
GPGPU-Sim uArch: core:  9, cta: 5 initialized @(30781,0)
GPGPU-Sim uArch: cycles simulated: 31000  inst.: 4487787 (ipc=144.8) sim_rate=29141 (inst/sec) elapsed = 0:0:02:34 / Fri Feb  1 10:05:39 2019
GPGPU-Sim uArch: Shader 4 finished CTA #3 (31152,0), 5 CTAs running
GPGPU-Sim uArch: core:  4, cta: 3 initialized @(31153,0)
GPGPU-Sim uArch: Shader 7 finished CTA #3 (31206,0), 5 CTAs running
GPGPU-Sim uArch: core:  7, cta: 3 initialized @(31207,0)
GPGPU-Sim PTX: 4700000 instructions simulated : ctaid=(174,0,0) tid=(83,0,0)
GPGPU-Sim uArch: cycles simulated: 31500  inst.: 4555234 (ipc=144.6) sim_rate=29014 (inst/sec) elapsed = 0:0:02:37 / Fri Feb  1 10:05:42 2019
GPGPU-Sim uArch: Shader 9 finished CTA #3 (31655,0), 5 CTAs running
GPGPU-Sim uArch: core:  9, cta: 3 initialized @(31656,0)
GPGPU-Sim uArch: cycles simulated: 32000  inst.: 4630507 (ipc=144.7) sim_rate=29122 (inst/sec) elapsed = 0:0:02:39 / Fri Feb  1 10:05:44 2019
GPGPU-Sim PTX: 4800000 instructions simulated : ctaid=(143,0,0) tid=(123,0,0)
GPGPU-Sim uArch: Shader 10 finished CTA #1 (32281,0), 5 CTAs running
GPGPU-Sim uArch: core: 10, cta: 1 initialized @(32282,0)
GPGPU-Sim uArch: cycles simulated: 32500  inst.: 4676234 (ipc=143.9) sim_rate=29044 (inst/sec) elapsed = 0:0:02:41 / Fri Feb  1 10:05:46 2019
GPGPU-Sim uArch: Shader 0 finished CTA #3 (32576,0), 5 CTAs running
GPGPU-Sim uArch: core:  0, cta: 3 initialized @(32577,0)
GPGPU-Sim uArch: Shader 8 finished CTA #3 (32628,0), 5 CTAs running
GPGPU-Sim uArch: core:  8, cta: 3 initialized @(32629,0)
GPGPU-Sim uArch: Shader 8 finished CTA #2 (32663,0), 5 CTAs running
GPGPU-Sim uArch: core:  8, cta: 2 initialized @(32664,0)
GPGPU-Sim uArch: Shader 3 finished CTA #0 (32667,0), 5 CTAs running
GPGPU-Sim uArch: core:  3, cta: 0 initialized @(32668,0)
GPGPU-Sim PTX: 4900000 instructions simulated : ctaid=(121,0,0) tid=(145,0,0)
GPGPU-Sim uArch: cycles simulated: 33000  inst.: 4751011 (ipc=144.0) sim_rate=28969 (inst/sec) elapsed = 0:0:02:44 / Fri Feb  1 10:05:49 2019
GPGPU-Sim uArch: Shader 8 finished CTA #5 (33046,0), 5 CTAs running
GPGPU-Sim uArch: core:  8, cta: 5 initialized @(33047,0)
GPGPU-Sim uArch: Shader 7 finished CTA #5 (33066,0), 5 CTAs running
GPGPU-Sim uArch: core:  7, cta: 5 initialized @(33067,0)
GPGPU-Sim uArch: Shader 11 finished CTA #0 (33119,0), 5 CTAs running
GPGPU-Sim uArch: core: 11, cta: 0 initialized @(33120,0)
GPGPU-Sim PTX: 5000000 instructions simulated : ctaid=(210,0,0) tid=(47,0,0)
GPGPU-Sim uArch: Shader 4 finished CTA #4 (33448,0), 5 CTAs running
GPGPU-Sim uArch: core:  4, cta: 4 initialized @(33449,0)
GPGPU-Sim uArch: cycles simulated: 33500  inst.: 4853854 (ipc=144.9) sim_rate=29417 (inst/sec) elapsed = 0:0:02:45 / Fri Feb  1 10:05:50 2019
GPGPU-Sim uArch: Shader 13 finished CTA #0 (33505,0), 5 CTAs running
GPGPU-Sim uArch: core: 13, cta: 0 initialized @(33506,0)
GPGPU-Sim uArch: Shader 13 finished CTA #1 (33572,0), 5 CTAs running
GPGPU-Sim uArch: core: 13, cta: 1 initialized @(33573,0)
GPGPU-Sim uArch: Shader 11 finished CTA #1 (33659,0), 5 CTAs running
GPGPU-Sim uArch: core: 11, cta: 1 initialized @(33660,0)
GPGPU-Sim PTX: 5100000 instructions simulated : ctaid=(203,0,0) tid=(45,0,0)
GPGPU-Sim uArch: cycles simulated: 34000  inst.: 4966019 (ipc=146.1) sim_rate=29559 (inst/sec) elapsed = 0:0:02:48 / Fri Feb  1 10:05:53 2019
GPGPU-Sim uArch: Shader 4 finished CTA #5 (34053,0), 5 CTAs running
GPGPU-Sim uArch: core:  4, cta: 5 initialized @(34054,0)
GPGPU-Sim uArch: Shader 13 finished CTA #2 (34055,0), 5 CTAs running
GPGPU-Sim uArch: core: 13, cta: 2 initialized @(34056,0)
GPGPU-Sim PTX: 5200000 instructions simulated : ctaid=(188,0,0) tid=(73,0,0)
GPGPU-Sim uArch: Shader 11 finished CTA #2 (34383,0), 5 CTAs running
GPGPU-Sim uArch: core: 11, cta: 2 initialized @(34384,0)
GPGPU-Sim uArch: Shader 0 finished CTA #2 (34441,0), 5 CTAs running
GPGPU-Sim uArch: core:  0, cta: 2 initialized @(34442,0)
GPGPU-Sim uArch: Shader 10 finished CTA #0 (34473,0), 5 CTAs running
GPGPU-Sim uArch: core: 10, cta: 0 initialized @(34474,0)
GPGPU-Sim uArch: cycles simulated: 34500  inst.: 5052029 (ipc=146.4) sim_rate=29893 (inst/sec) elapsed = 0:0:02:49 / Fri Feb  1 10:05:54 2019
GPGPU-Sim uArch: Shader 0 finished CTA #1 (34626,0), 5 CTAs running
GPGPU-Sim uArch: core:  0, cta: 1 initialized @(34627,0)
GPGPU-Sim uArch: Shader 10 finished CTA #3 (34814,0), 5 CTAs running
GPGPU-Sim uArch: core: 10, cta: 3 initialized @(34815,0)
GPGPU-Sim uArch: Shader 10 finished CTA #2 (34838,0), 5 CTAs running
GPGPU-Sim uArch: core: 10, cta: 2 initialized @(34839,0)
GPGPU-Sim uArch: cycles simulated: 35000  inst.: 5113559 (ipc=146.1) sim_rate=29903 (inst/sec) elapsed = 0:0:02:51 / Fri Feb  1 10:05:56 2019
GPGPU-Sim PTX: 5300000 instructions simulated : ctaid=(191,0,0) tid=(48,0,0)
GPGPU-Sim uArch: Shader 3 finished CTA #4 (35227,0), 5 CTAs running
GPGPU-Sim uArch: core:  3, cta: 4 initialized @(35228,0)
GPGPU-Sim uArch: Shader 10 finished CTA #4 (35358,0), 5 CTAs running
GPGPU-Sim uArch: core: 10, cta: 4 initialized @(35359,0)
GPGPU-Sim uArch: cycles simulated: 35500  inst.: 5168063 (ipc=145.6) sim_rate=29873 (inst/sec) elapsed = 0:0:02:53 / Fri Feb  1 10:05:58 2019
GPGPU-Sim uArch: Shader 0 finished CTA #0 (35793,0), 5 CTAs running
GPGPU-Sim uArch: core:  0, cta: 0 initialized @(35794,0)
GPGPU-Sim PTX: 5400000 instructions simulated : ctaid=(202,0,0) tid=(153,0,0)
GPGPU-Sim uArch: cycles simulated: 36000  inst.: 5235971 (ipc=145.4) sim_rate=29919 (inst/sec) elapsed = 0:0:02:55 / Fri Feb  1 10:06:00 2019
GPGPU-Sim uArch: Shader 7 finished CTA #4 (36160,0), 5 CTAs running
GPGPU-Sim uArch: core:  7, cta: 4 initialized @(36161,0)
GPGPU-Sim PTX: 5500000 instructions simulated : ctaid=(212,0,0) tid=(117,0,0)
GPGPU-Sim uArch: Shader 5 finished CTA #4 (36325,0), 5 CTAs running
GPGPU-Sim uArch: core:  5, cta: 4 initialized @(36326,0)
GPGPU-Sim uArch: Shader 5 finished CTA #5 (36334,0), 5 CTAs running
GPGPU-Sim uArch: core:  5, cta: 5 initialized @(36335,0)
GPGPU-Sim uArch: Shader 0 finished CTA #5 (36400,0), 5 CTAs running
GPGPU-Sim uArch: core:  0, cta: 5 initialized @(36401,0)
GPGPU-Sim uArch: Shader 2 finished CTA #5 (36423,0), 5 CTAs running
GPGPU-Sim uArch: core:  2, cta: 5 initialized @(36424,0)
GPGPU-Sim uArch: Shader 2 finished CTA #0 (36432,0), 5 CTAs running
GPGPU-Sim uArch: core:  2, cta: 0 initialized @(36433,0)
GPGPU-Sim uArch: cycles simulated: 36500  inst.: 5335715 (ipc=146.2) sim_rate=30145 (inst/sec) elapsed = 0:0:02:57 / Fri Feb  1 10:06:02 2019
GPGPU-Sim uArch: Shader 8 finished CTA #1 (36569,0), 5 CTAs running
GPGPU-Sim uArch: core:  8, cta: 1 initialized @(36570,0)
GPGPU-Sim PTX: 5600000 instructions simulated : ctaid=(191,0,0) tid=(7,0,0)
GPGPU-Sim uArch: Shader 3 finished CTA #5 (36810,0), 5 CTAs running
GPGPU-Sim uArch: core:  3, cta: 5 initialized @(36811,0)
GPGPU-Sim uArch: cycles simulated: 37000  inst.: 5428817 (ipc=146.7) sim_rate=30328 (inst/sec) elapsed = 0:0:02:59 / Fri Feb  1 10:06:04 2019
GPGPU-Sim uArch: Shader 13 finished CTA #3 (37079,0), 5 CTAs running
GPGPU-Sim uArch: core: 13, cta: 3 initialized @(37080,0)
GPGPU-Sim uArch: Shader 6 finished CTA #0 (37156,0), 5 CTAs running
GPGPU-Sim uArch: core:  6, cta: 0 initialized @(37157,0)
GPGPU-Sim uArch: Shader 12 finished CTA #3 (37169,0), 5 CTAs running
GPGPU-Sim uArch: core: 12, cta: 3 initialized @(37170,0)
GPGPU-Sim uArch: Shader 5 finished CTA #2 (37174,0), 5 CTAs running
GPGPU-Sim uArch: core:  5, cta: 2 initialized @(37175,0)
GPGPU-Sim uArch: Shader 12 finished CTA #0 (37238,0), 5 CTAs running
GPGPU-Sim uArch: core: 12, cta: 0 initialized @(37239,0)
GPGPU-Sim uArch: Shader 6 finished CTA #1 (37354,0), 5 CTAs running
GPGPU-Sim uArch: core:  6, cta: 1 initialized @(37355,0)
GPGPU-Sim PTX: 5700000 instructions simulated : ctaid=(225,0,0) tid=(89,0,0)
GPGPU-Sim uArch: cycles simulated: 37500  inst.: 5522866 (ipc=147.3) sim_rate=30345 (inst/sec) elapsed = 0:0:03:02 / Fri Feb  1 10:06:07 2019
GPGPU-Sim uArch: Shader 13 finished CTA #4 (37553,0), 5 CTAs running
GPGPU-Sim uArch: core: 13, cta: 4 initialized @(37554,0)
GPGPU-Sim uArch: Shader 11 finished CTA #3 (37573,0), 5 CTAs running
GPGPU-Sim uArch: core: 11, cta: 3 initialized @(37574,0)
GPGPU-Sim uArch: Shader 8 finished CTA #0 (37687,0), 5 CTAs running
GPGPU-Sim uArch: core:  8, cta: 0 initialized @(37688,0)
GPGPU-Sim uArch: Shader 1 finished CTA #2 (37838,0), 5 CTAs running
GPGPU-Sim uArch: core:  1, cta: 2 initialized @(37839,0)
GPGPU-Sim uArch: Shader 14 finished CTA #0 (37922,0), 5 CTAs running
GPGPU-Sim uArch: core: 14, cta: 0 initialized @(37923,0)
GPGPU-Sim PTX: 5800000 instructions simulated : ctaid=(238,0,0) tid=(77,0,0)
GPGPU-Sim uArch: cycles simulated: 38000  inst.: 5609846 (ipc=147.6) sim_rate=30488 (inst/sec) elapsed = 0:0:03:04 / Fri Feb  1 10:06:09 2019
GPGPU-Sim uArch: Shader 1 finished CTA #3 (38216,0), 5 CTAs running
GPGPU-Sim uArch: core:  1, cta: 3 initialized @(38217,0)
GPGPU-Sim uArch: Shader 14 finished CTA #1 (38368,0), 5 CTAs running
GPGPU-Sim uArch: core: 14, cta: 1 initialized @(38369,0)
GPGPU-Sim PTX: 5900000 instructions simulated : ctaid=(204,0,0) tid=(248,0,0)
GPGPU-Sim uArch: cycles simulated: 38500  inst.: 5694908 (ipc=147.9) sim_rate=30454 (inst/sec) elapsed = 0:0:03:07 / Fri Feb  1 10:06:12 2019
GPGPU-Sim uArch: Shader 12 finished CTA #1 (38669,0), 5 CTAs running
GPGPU-Sim uArch: core: 12, cta: 1 initialized @(38670,0)
GPGPU-Sim uArch: Shader 9 finished CTA #4 (38688,0), 5 CTAs running
GPGPU-Sim uArch: core:  9, cta: 4 initialized @(38689,0)
GPGPU-Sim uArch: Shader 2 finished CTA #3 (38738,0), 5 CTAs running
GPGPU-Sim uArch: core:  2, cta: 3 initialized @(38739,0)
GPGPU-Sim uArch: Shader 2 finished CTA #2 (38754,0), 5 CTAs running
GPGPU-Sim uArch: core:  2, cta: 2 initialized @(38755,0)
GPGPU-Sim uArch: cycles simulated: 39000  inst.: 5755610 (ipc=147.6) sim_rate=30452 (inst/sec) elapsed = 0:0:03:09 / Fri Feb  1 10:06:14 2019
GPGPU-Sim uArch: Shader 14 finished CTA #3 (39176,0), 5 CTAs running
GPGPU-Sim uArch: core: 14, cta: 3 initialized @(39177,0)
GPGPU-Sim PTX: 6000000 instructions simulated : ctaid=(249,0,0) tid=(195,0,0)
GPGPU-Sim uArch: cycles simulated: 39500  inst.: 5811320 (ipc=147.1) sim_rate=30425 (inst/sec) elapsed = 0:0:03:11 / Fri Feb  1 10:06:16 2019
GPGPU-Sim uArch: Shader 11 finished CTA #4 (39506,0), 5 CTAs running
GPGPU-Sim uArch: core: 11, cta: 4 initialized @(39507,0)
GPGPU-Sim uArch: Shader 9 finished CTA #0 (39542,0), 5 CTAs running
GPGPU-Sim uArch: core:  9, cta: 0 initialized @(39543,0)
GPGPU-Sim uArch: Shader 6 finished CTA #3 (39806,0), 5 CTAs running
GPGPU-Sim uArch: core:  6, cta: 3 initialized @(39807,0)
GPGPU-Sim uArch: Shader 10 finished CTA #5 (39809,0), 5 CTAs running
GPGPU-Sim uArch: core: 10, cta: 5 initialized @(39810,0)
GPGPU-Sim uArch: Shader 0 finished CTA #4 (39827,0), 5 CTAs running
GPGPU-Sim uArch: core:  0, cta: 4 initialized @(39828,0)
GPGPU-Sim PTX: 6100000 instructions simulated : ctaid=(256,0,0) tid=(7,0,0)
GPGPU-Sim uArch: Shader 11 finished CTA #5 (39987,0), 5 CTAs running
GPGPU-Sim uArch: core: 11, cta: 5 initialized @(39988,0)
GPGPU-Sim uArch: cycles simulated: 40000  inst.: 5895461 (ipc=147.4) sim_rate=30546 (inst/sec) elapsed = 0:0:03:13 / Fri Feb  1 10:06:18 2019
GPGPU-Sim uArch: Shader 13 finished CTA #5 (40310,0), 5 CTAs running
GPGPU-Sim uArch: core: 13, cta: 5 initialized @(40311,0)
GPGPU-Sim uArch: Shader 9 finished CTA #1 (40377,0), 5 CTAs running
GPGPU-Sim uArch: core:  9, cta: 1 initialized @(40378,0)
GPGPU-Sim uArch: Shader 9 finished CTA #2 (40386,0), 5 CTAs running
GPGPU-Sim uArch: core:  9, cta: 2 initialized @(40387,0)
GPGPU-Sim uArch: Shader 8 finished CTA #4 (40393,0), 5 CTAs running
GPGPU-Sim uArch: core:  8, cta: 4 initialized @(40394,0)
GPGPU-Sim uArch: cycles simulated: 40500  inst.: 5953656 (ipc=147.0) sim_rate=30531 (inst/sec) elapsed = 0:0:03:15 / Fri Feb  1 10:06:20 2019
GPGPU-Sim PTX: 6200000 instructions simulated : ctaid=(258,0,0) tid=(170,0,0)
GPGPU-Sim uArch: Shader 14 finished CTA #2 (40722,0), 5 CTAs running
GPGPU-Sim uArch: core: 14, cta: 2 initialized @(40723,0)
GPGPU-Sim uArch: Shader 5 finished CTA #0 (40786,0), 5 CTAs running
GPGPU-Sim uArch: core:  5, cta: 0 initialized @(40787,0)
GPGPU-Sim uArch: Shader 5 finished CTA #1 (40795,0), 5 CTAs running
GPGPU-Sim uArch: core:  5, cta: 1 initialized @(40796,0)
GPGPU-Sim uArch: Shader 2 finished CTA #4 (40985,0), 5 CTAs running
GPGPU-Sim uArch: core:  2, cta: 4 initialized @(40986,0)
GPGPU-Sim uArch: cycles simulated: 41000  inst.: 6038185 (ipc=147.3) sim_rate=30650 (inst/sec) elapsed = 0:0:03:17 / Fri Feb  1 10:06:22 2019
GPGPU-Sim uArch: Shader 6 finished CTA #2 (41120,0), 5 CTAs running
GPGPU-Sim uArch: core:  6, cta: 2 initialized @(41121,0)
GPGPU-Sim PTX: 6300000 instructions simulated : ctaid=(263,0,0) tid=(183,0,0)
GPGPU-Sim uArch: cycles simulated: 41500  inst.: 6125811 (ipc=147.6) sim_rate=30629 (inst/sec) elapsed = 0:0:03:20 / Fri Feb  1 10:06:25 2019
GPGPU-Sim uArch: Shader 1 finished CTA #0 (41685,0), 5 CTAs running
GPGPU-Sim uArch: core:  1, cta: 0 initialized @(41686,0)
GPGPU-Sim uArch: Shader 9 finished CTA #3 (41729,0), 5 CTAs running
GPGPU-Sim uArch: core:  9, cta: 3 initialized @(41730,0)
GPGPU-Sim uArch: Shader 12 finished CTA #2 (41740,0), 5 CTAs running
GPGPU-Sim uArch: core: 12, cta: 2 initialized @(41741,0)
GPGPU-Sim PTX: 6400000 instructions simulated : ctaid=(268,0,0) tid=(76,0,0)
GPGPU-Sim uArch: Shader 12 finished CTA #4 (41788,0), 5 CTAs running
GPGPU-Sim uArch: core: 12, cta: 4 initialized @(41789,0)
GPGPU-Sim uArch: cycles simulated: 42000  inst.: 6208497 (ipc=147.8) sim_rate=30735 (inst/sec) elapsed = 0:0:03:22 / Fri Feb  1 10:06:27 2019
GPGPU-Sim uArch: Shader 1 finished CTA #1 (42049,0), 5 CTAs running
GPGPU-Sim uArch: core:  1, cta: 1 initialized @(42050,0)
GPGPU-Sim uArch: Shader 5 finished CTA #3 (42079,0), 5 CTAs running
GPGPU-Sim uArch: core:  5, cta: 3 initialized @(42080,0)
GPGPU-Sim uArch: Shader 2 finished CTA #1 (42211,0), 5 CTAs running
GPGPU-Sim uArch: core:  2, cta: 1 initialized @(42212,0)
GPGPU-Sim uArch: Shader 14 finished CTA #5 (42212,0), 5 CTAs running
GPGPU-Sim uArch: core: 14, cta: 5 initialized @(42213,0)
GPGPU-Sim PTX: 6500000 instructions simulated : ctaid=(269,0,0) tid=(107,0,0)
GPGPU-Sim uArch: cycles simulated: 42500  inst.: 6271552 (ipc=147.6) sim_rate=30894 (inst/sec) elapsed = 0:0:03:23 / Fri Feb  1 10:06:28 2019
GPGPU-Sim uArch: Shader 1 finished CTA #4 (42630,0), 5 CTAs running
GPGPU-Sim uArch: core:  1, cta: 4 initialized @(42631,0)
GPGPU-Sim uArch: Shader 9 finished CTA #5 (42668,0), 5 CTAs running
GPGPU-Sim uArch: core:  9, cta: 5 initialized @(42669,0)
GPGPU-Sim uArch: cycles simulated: 43000  inst.: 6329626 (ipc=147.2) sim_rate=30876 (inst/sec) elapsed = 0:0:03:25 / Fri Feb  1 10:06:30 2019
GPGPU-Sim PTX: 6600000 instructions simulated : ctaid=(205,0,0) tid=(175,0,0)
GPGPU-Sim uArch: Shader 6 finished CTA #4 (43469,0), 5 CTAs running
GPGPU-Sim uArch: core:  6, cta: 4 initialized @(43470,0)
GPGPU-Sim uArch: Shader 6 finished CTA #5 (43478,0), 5 CTAs running
GPGPU-Sim uArch: core:  6, cta: 5 initialized @(43479,0)
GPGPU-Sim uArch: cycles simulated: 43500  inst.: 6399276 (ipc=147.1) sim_rate=30914 (inst/sec) elapsed = 0:0:03:27 / Fri Feb  1 10:06:32 2019
GPGPU-Sim uArch: Shader 7 finished CTA #2 (43580,0), 5 CTAs running
GPGPU-Sim uArch: core:  7, cta: 2 initialized @(43581,0)
GPGPU-Sim uArch: Shader 4 finished CTA #0 (43604,0), 5 CTAs running
GPGPU-Sim uArch: core:  4, cta: 0 initialized @(43605,0)
GPGPU-Sim uArch: Shader 7 finished CTA #0 (43609,0), 5 CTAs running
GPGPU-Sim uArch: core:  7, cta: 0 initialized @(43610,0)
GPGPU-Sim PTX: 6700000 instructions simulated : ctaid=(201,0,0) tid=(252,0,0)
GPGPU-Sim uArch: cycles simulated: 44000  inst.: 6501939 (ipc=147.8) sim_rate=31109 (inst/sec) elapsed = 0:0:03:29 / Fri Feb  1 10:06:34 2019
GPGPU-Sim uArch: Shader 4 finished CTA #1 (44353,0), 5 CTAs running
GPGPU-Sim uArch: core:  4, cta: 1 initialized @(44354,0)
GPGPU-Sim uArch: Shader 3 finished CTA #2 (44410,0), 5 CTAs running
GPGPU-Sim uArch: core:  3, cta: 2 initialized @(44411,0)
GPGPU-Sim PTX: 6800000 instructions simulated : ctaid=(282,0,0) tid=(246,0,0)
GPGPU-Sim uArch: cycles simulated: 44500  inst.: 6567548 (ipc=147.6) sim_rate=31125 (inst/sec) elapsed = 0:0:03:31 / Fri Feb  1 10:06:36 2019
GPGPU-Sim uArch: Shader 14 finished CTA #4 (44621,0), 5 CTAs running
GPGPU-Sim uArch: core: 14, cta: 4 initialized @(44622,0)
GPGPU-Sim uArch: Shader 12 finished CTA #5 (44899,0), 5 CTAs running
GPGPU-Sim uArch: core: 12, cta: 5 initialized @(44900,0)
GPGPU-Sim uArch: cycles simulated: 45000  inst.: 6641973 (ipc=147.6) sim_rate=31182 (inst/sec) elapsed = 0:0:03:33 / Fri Feb  1 10:06:38 2019
GPGPU-Sim PTX: 6900000 instructions simulated : ctaid=(215,0,0) tid=(99,0,0)
GPGPU-Sim uArch: Shader 1 finished CTA #5 (45239,0), 5 CTAs running
GPGPU-Sim uArch: core:  1, cta: 5 initialized @(45240,0)
GPGPU-Sim uArch: Shader 4 finished CTA #2 (45273,0), 5 CTAs running
GPGPU-Sim uArch: core:  4, cta: 2 initialized @(45274,0)
GPGPU-Sim uArch: Shader 7 finished CTA #1 (45281,0), 5 CTAs running
GPGPU-Sim uArch: core:  7, cta: 1 initialized @(45282,0)
GPGPU-Sim uArch: cycles simulated: 45500  inst.: 6693140 (ipc=147.1) sim_rate=31276 (inst/sec) elapsed = 0:0:03:34 / Fri Feb  1 10:06:39 2019
GPGPU-Sim uArch: Shader 3 finished CTA #3 (45709,0), 5 CTAs running
GPGPU-Sim uArch: core:  3, cta: 3 initialized @(45710,0)
GPGPU-Sim uArch: cycles simulated: 46000  inst.: 6753743 (ipc=146.8) sim_rate=31267 (inst/sec) elapsed = 0:0:03:36 / Fri Feb  1 10:06:41 2019
GPGPU-Sim PTX: 7000000 instructions simulated : ctaid=(269,0,0) tid=(36,0,0)
GPGPU-Sim uArch: Shader 4 finished CTA #4 (46233,0), 5 CTAs running
GPGPU-Sim uArch: core:  4, cta: 4 initialized @(46234,0)
GPGPU-Sim uArch: cycles simulated: 46500  inst.: 6816081 (ipc=146.6) sim_rate=31266 (inst/sec) elapsed = 0:0:03:38 / Fri Feb  1 10:06:43 2019
GPGPU-Sim uArch: Shader 4 finished CTA #3 (46606,0), 5 CTAs running
GPGPU-Sim uArch: core:  4, cta: 3 initialized @(46607,0)
GPGPU-Sim PTX: 7100000 instructions simulated : ctaid=(286,0,0) tid=(197,0,0)
GPGPU-Sim uArch: Shader 3 finished CTA #1 (46921,0), 5 CTAs running
GPGPU-Sim uArch: core:  3, cta: 1 initialized @(46922,0)
GPGPU-Sim uArch: cycles simulated: 47000  inst.: 6880108 (ipc=146.4) sim_rate=31273 (inst/sec) elapsed = 0:0:03:40 / Fri Feb  1 10:06:45 2019
GPGPU-Sim uArch: cycles simulated: 47500  inst.: 6941043 (ipc=146.1) sim_rate=31265 (inst/sec) elapsed = 0:0:03:42 / Fri Feb  1 10:06:47 2019
GPGPU-Sim PTX: 7200000 instructions simulated : ctaid=(251,0,0) tid=(172,0,0)
GPGPU-Sim uArch: Shader 0 finished CTA #3 (47683,0), 5 CTAs running
GPGPU-Sim uArch: core:  0, cta: 3 initialized @(47684,0)
GPGPU-Sim uArch: cycles simulated: 48000  inst.: 7014334 (ipc=146.1) sim_rate=31174 (inst/sec) elapsed = 0:0:03:45 / Fri Feb  1 10:06:50 2019
GPGPU-Sim PTX: 7300000 instructions simulated : ctaid=(278,0,0) tid=(10,0,0)
GPGPU-Sim uArch: Shader 4 finished CTA #5 (48309,0), 5 CTAs running
GPGPU-Sim uArch: core:  4, cta: 5 initialized @(48310,0)
GPGPU-Sim uArch: Shader 3 finished CTA #0 (48346,0), 5 CTAs running
GPGPU-Sim uArch: core:  3, cta: 0 initialized @(48347,0)
GPGPU-Sim uArch: Shader 8 finished CTA #3 (48390,0), 5 CTAs running
GPGPU-Sim uArch: core:  8, cta: 3 initialized @(48391,0)
GPGPU-Sim uArch: cycles simulated: 48500  inst.: 7086444 (ipc=146.1) sim_rate=31080 (inst/sec) elapsed = 0:0:03:48 / Fri Feb  1 10:06:53 2019
GPGPU-Sim uArch: Shader 7 finished CTA #5 (48594,0), 5 CTAs running
GPGPU-Sim uArch: core:  7, cta: 5 initialized @(48595,0)
GPGPU-Sim PTX: 7400000 instructions simulated : ctaid=(297,0,0) tid=(186,0,0)
GPGPU-Sim uArch: Shader 7 finished CTA #3 (48785,0), 5 CTAs running
GPGPU-Sim uArch: core:  7, cta: 3 initialized @(48786,0)
GPGPU-Sim uArch: cycles simulated: 49000  inst.: 7177043 (ipc=146.5) sim_rate=31204 (inst/sec) elapsed = 0:0:03:50 / Fri Feb  1 10:06:55 2019
GPGPU-Sim PTX: 7500000 instructions simulated : ctaid=(232,0,0) tid=(127,0,0)
GPGPU-Sim uArch: Shader 10 finished CTA #1 (49423,0), 5 CTAs running
GPGPU-Sim uArch: core: 10, cta: 1 initialized @(49424,0)
GPGPU-Sim uArch: Shader 11 finished CTA #0 (49439,0), 5 CTAs running
GPGPU-Sim uArch: core: 11, cta: 0 initialized @(49440,0)
GPGPU-Sim uArch: cycles simulated: 49500  inst.: 7259282 (ipc=146.7) sim_rate=31425 (inst/sec) elapsed = 0:0:03:51 / Fri Feb  1 10:06:56 2019
GPGPU-Sim uArch: Shader 13 finished CTA #0 (49799,0), 5 CTAs running
GPGPU-Sim uArch: Shader 13 finished CTA #1 (49799,0), 4 CTAs running
GPGPU-Sim uArch: core: 13, cta: 0 initialized @(49800,0)
GPGPU-Sim uArch: core: 13, cta: 1 initialized @(49801,0)
GPGPU-Sim uArch: Shader 11 finished CTA #1 (49810,0), 5 CTAs running
GPGPU-Sim uArch: core: 11, cta: 1 initialized @(49811,0)
GPGPU-Sim uArch: Shader 0 finished CTA #1 (49940,0), 5 CTAs running
GPGPU-Sim uArch: core:  0, cta: 1 initialized @(49941,0)
GPGPU-Sim uArch: cycles simulated: 50000  inst.: 7328569 (ipc=146.6) sim_rate=31453 (inst/sec) elapsed = 0:0:03:53 / Fri Feb  1 10:06:58 2019
GPGPU-Sim PTX: 7600000 instructions simulated : ctaid=(293,0,0) tid=(23,0,0)
GPGPU-Sim uArch: Shader 10 finished CTA #0 (50370,0), 5 CTAs running
GPGPU-Sim uArch: core: 10, cta: 0 initialized @(50371,0)
GPGPU-Sim uArch: Shader 0 finished CTA #2 (50376,0), 5 CTAs running
GPGPU-Sim uArch: core:  0, cta: 2 initialized @(50377,0)
[...]
traffic_breakdown_memtocore[GLOBAL_ACC_W] = 880000 {8:110000,}
traffic_breakdown_memtocore[INST_ACC_R] = 24480 {136:180,}
maxmrqlatency = 153 
maxdqlatency = 0 
maxmflatency = 2250 
averagemflatency = 403 
max_icnt2mem_latency = 2619 
max_icnt2sh_latency = 2097621 
mrq_lat_table:166526 	2272 	3572 	7573 	44747 	5499 	460 	4 	0 	0 	0 	0 	0 	0 	0 	0 	0 	0 	0 	0 	0 	0 	0 	0 	0 	0 	0 	0 	0 	0 	0 	0 	
dq_lat_table:0 	0 	0 	0 	0 	0 	0 	0 	0 	0 	0 	0 	0 	0 	0 	0 	0 	0 	0 	0 	0 	0 	0 	0 	0 	0 	0 	0 	0 	0 	0 	0 	
mf_lat_table:0 	0 	0 	0 	0 	0 	0 	554186 	1305694 	631313 	1814 	2 	0 	0 	0 	0 	0 	0 	0 	0 	0 	0 	0 	0 	0 	0 	0 	0 	0 	0 	0 	0 	
icnt2mem_lat_table:0 	0 	0 	185686 	67283 	384372 	577523 	382501 	845874 	49858 	79 	13 	0 	0 	0 	0 	0 	0 	0 	0 	0 	0 	0 	0 	
icnt2sh_lat_table:0 	0 	0 	452189 	1105819 	780808 	43539 	654 	0 	0 	0 	0 	80 	618 	903 	1819 	4156 	7817 	15593 	30369 	48638 	7 	0 	0 	
mf_lat_pw_table:0 	0 	0 	0 	0 	0 	0 	9 	4128 	55 	0 	0 	0 	0 	0 	0 	0 	0 	0 	0 	0 	0 	0 	0 	0 	0 	0 	0 	0 	0 	0 	0 	
maximum concurrent accesses to same row:
dram[0]:         5         5         4         7         9         6        18        20        16        14        11        15        20        14        12         6 
dram[1]:         4         4         7         6         8         5        24        14        15        21        14        13        18        21        16         5 
dram[2]:         4         4         6         5         6        10        21        14        14        21        13        11        16        15        12         5 
dram[3]:         4         4         5         8         6         7        19        17        20        20        14        16         9        14        12         9 
dram[4]:         4         4         6         4         7         6        18        26        21        17        12        17        15        14        15        11 
dram[5]:         4         5         4         5         5         6        23        20        15        17        19        15        12        18         9        10 
maximum service time to same row:
dram[0]:     14980     11725     12971     15123     12089     11189     10055      9380     11028     13331     11653     12437     10122     13976     15705     13931 
dram[1]:     15151     13495     12180     15129     12055     10315     15605      9404     13918     13842     11741     15573     12443     13958     15699     13978 
dram[2]:     13573     13537     14823     15133     12157     11542     16333     11446     14092      9561     12145     14997     10071     16015     14314      9630 
dram[3]:     14162     13531     14838     15137     13408     12742     11922     11408      9510     10132     12161     10844     13927     14127     15621      9436 
dram[4]:     12993     13829     14880     15331     12140     17298      9556     10663     12135     12794     13351     10880     13929     13448     15625      9732 
dram[5]:     14211     14756     15119     15123     10689     12387     10807     11572      9914     10278      9365     10886     13990     13174     15155     15561 
average row accesses per activate:
dram[0]:  1.584416  1.583058  1.581731  1.598786  1.566330  1.585366  1.569366  1.571255  1.577225  1.623715  1.629679  1.577913  1.558425  1.592944  1.574558  1.607446 
dram[1]:  1.574110  1.573273  1.582656  1.602902  1.577465  1.587761  1.595300  1.567146  1.575210  1.582719  1.600645  1.587719  1.558974  1.567213  1.598757  1.637042 
dram[2]:  1.551241  1.587930  1.575778  1.583387  1.590394  1.589543  1.593455  1.617859  1.586476  1.592072  1.595691  1.624190  1.597260  1.576897  1.574915  1.645604 
dram[3]:  1.578806  1.581090  1.607816  1.605596  1.592668  1.561528  1.597867  1.600645  1.603513  1.579503  1.583443  1.597966  1.574579  1.544344  1.605171  1.597132 
dram[4]:  1.590483  1.567057  1.615174  1.593141  1.580363  1.570761  1.587240  1.577554  1.586140  1.582381  1.615385  1.580167  1.592994  1.570674  1.598303  1.596089 
dram[5]:  1.570866  1.590111  1.603927  1.576565  1.561935  1.569057  1.602317  1.571248  1.582838  1.576123  1.587594  1.583388  1.592062  1.587029  1.590361  1.629818 
average row locality = 230653/145294 = 1.587492
number of total memory accesses made:
dram[0]:         0         0         0         0         0         0         0         0         0         0         0         0         0         0         0         0 
dram[1]:         0         0         0         0         0         0         0         0         0         0         0         0         0         0         0         0 
dram[2]:         0         0         0         0         0         0         0         0         0         0         0         0         0         0         0         0 
dram[3]:         0         0         0         0         0         0         0         0         0         0         0         0         0         0         0         0 
dram[4]:         0         0         0         0         0         0         0         0         0         0         0         0         0         0         0         0 
dram[5]:         0         0         0         0         0         0         0         0         0         0         0         0         0         0         0         0 
total accesses: 0
min_bank_accesses = 0!
min_chip_accesses = 0!
number of total read accesses:
dram[0]:      2391      2338      2209      2277      2290      2367      2414      2512      2385      2338      2407      2299      2380      2312      2158      2387 
dram[1]:      2382      2385      2241      2333      2315      2321      2356      2428      2412      2328      2453      2324      2398      2356      2233      2331 
dram[2]:      2386      2395      2284      2362      2346      2388      2442      2378      2410      2454      2484      2230      2298      2314      2241      2328 
dram[3]:      2305      2351      2204      2309      2308      2369      2461      2400      2523      2514      2381      2321      2392      2369      2213      2378 
dram[4]:      2320      2354      2269      2272      2312      2311      2355      2421      2419      2322      2255      2427      2467      2344      2184      2288 
dram[5]:      2341      2391      2271      2276      2383      2322      2406      2397      2370      2322      2302      2396      2413      2365      2293      2166 
total reads: 225332
bank skew: 2523/2158 = 1.17
chip skew: 37798/37320 = 1.01
number of total write accesses:
dram[0]:        49        54        94        94        36        38        86        79        25        31        31        30        34        36        70        74 
dram[1]:        50        52        95        97        37        40        88        81        28        35        28        29        34        34        82        82 
dram[2]:        51        52        97        97        38        44        90        86        30        36        34        26        34        34        82        68 
dram[3]:        49        57       100       101        38        42        86        81        33        29        29        36        36        34        84        72 
dram[4]:        53        53        94        97        38        42        83        81        30        31        34        27        34        34        76        79 
dram[5]:        53        53        98        92        38        41        84        84        28        28        27        25        34        33        83        75 
total reads: 5321
bank skew: 101/25 = 4.04
chip skew: 907/861 = 1.05
average mf latency per bank:
dram[0]:       4230      3295      4300      3599     18452      4771      3513      3475      5923      4538      8537      2225      4565      3454      2427      1877
dram[1]:       3668      3097      3391      3316     14006      5016      3472      3132      4785      4720      3780      1901      3957      4077      2348      1712
dram[2]:       3803      3012      3557      3191     13783      6766      3659      3128      4844      4398      2286      1960      4278      4207      2078      1886
dram[3]:       4234      3425      4021      3855     14821      5089      3794      3636      4819      4699      2075     10283      4428      3649      1976      2227
dram[4]:       3613      3318      3908      3512      7479      4709      3492      3692      5082      4738      2035      8490      3762      3340      2003      2337
dram[5]:       3493      3439      3887      3615      4957      4826      3623      3490      4814      5108      3471      8506      3321      3457      2036      2143
maximum mf latency per bank:
dram[0]:       1209      1172      1182      1193      1242      1105      1186      1133      1237      1158      1156      1128      1242      1117      1235      1163
dram[1]:       1175      1163      1160      1079      1177      1096      1797      1083      1144      1019      1217      1033      1225      1148      1038      1082
dram[2]:       1125      1023      1147      1077      1136      1207      1794      1114      1224      1108      1137      1011      1377      1154      1095      2154
dram[3]:       1203      1235      1403      1250      1327      1236      1330      1102      1200      1203      1168      1463      1344      1138      1159      1763
dram[4]:       1310      1203      1270      1171      1098      1078      1239      1091      1187      1102      2250      1077      1170      1148      1095      1174
dram[5]:       1214      1227      1260      1172      1119      1172      1232      1079      1232      1253      1223      1083      1264      1074      1238      1119
Memory Partition 0: 
Cache L2_bank_000:
MSHR contents

Cache L2_bank_001:
MSHR contents

In Dram Latency Queue (total = 0): 
DRAM[0]: 16 bks, busW=4 BL=8 CL=12, tRRD=2 tCCD=6, tRCD=12 tRAS=28 tRP=12 tRC=40
n_cmd=2097622 n_nop=1972967 n_act=24163 n_pre=24147 n_req=38325 n_rd=74928 n_write=1417 bw_util=0.07279
n_activity=877983 dram_eff=0.1739
bk0: 4782a 2045229i bk1: 4676a 2046274i bk2: 4418a 2047855i bk3: 4554a 2047052i bk4: 4580a 2047494i bk5: 4734a 2046324i bk6: 4828a 2043649i bk7: 5024a 2041432i bk8: 4770a 2046185i bk9: 4676a 2047706i bk10: 4814a 2046914i bk11: 4598a 2047765i bk12: 4760a 2045301i bk13: 4624a 2047487i bk14: 4316a 2049460i bk15: 4774a 2045331i 
dram_util_bins: 0 0 0 0 0 0 0 0 0 0
dram_eff_bins: 0 0 0 0 0 0 0 0 0 0
mrqq: max=10 avg=0.107484
Memory Partition 1: 
Cache L2_bank_002:
MSHR contents

Cache L2_bank_003:
MSHR contents

In Dram Latency Queue (total = 0): 
DRAM[1]: 16 bks, busW=4 BL=8 CL=12, tRRD=2 tCCD=6, tRCD=12 tRAS=28 tRP=12 tRC=40
n_cmd=2097622 n_nop=1972439 n_act=24278 n_pre=24262 n_req=38488 n_rd=75192 n_write=1451 bw_util=0.07308
n_activity=862251 dram_eff=0.1778
bk0: 4764a 2045398i bk1: 4770a 2045060i bk2: 4482a 2046674i bk3: 4666a 2045370i bk4: 4630a 2047211i bk5: 4642a 2047002i bk6: 4712a 2045124i bk7: 4856a 2042965i bk8: 4824a 2045246i bk9: 4656a 2046802i bk10: 4906a 2044976i bk11: 4648a 2047216i bk12: 4796a 2044902i bk13: 4712a 2045538i bk14: 4466a 2048174i bk15: 4662a 2046632i 
dram_util_bins: 0 0 0 0 0 0 0 0 0 0
dram_eff_bins: 0 0 0 0 0 0 0 0 0 0
mrqq: max=8 avg=0.113477
Memory Partition 2: 
Cache L2_bank_004:
MSHR contents

Cache L2_bank_005:
MSHR contents

In Dram Latency Queue (total = 0): 
DRAM[2]: 16 bks, busW=4 BL=8 CL=12, tRRD=2 tCCD=6, tRCD=12 tRAS=28 tRP=12 tRC=40
n_cmd=2097622 n_nop=1972164 n_act=24266 n_pre=24250 n_req=38639 n_rd=75480 n_write=1462 bw_util=0.07336
n_activity=864633 dram_eff=0.178
bk0: 4772a 2044767i bk1: 4790a 2045105i bk2: 4568a 2045632i bk3: 4724a 2044184i bk4: 4692a 2046523i bk5: 4776a 2045419i bk6: 4884a 2043129i bk7: 4756a 2044999i bk8: 4820a 2045559i bk9: 4908a 2044534i bk10: 4968a 2043950i bk11: 4460a 2050051i bk12: 4596a 2047942i bk13: 4628a 2047368i bk14: 4482a 2047297i bk15: 4656a 2047782i 
dram_util_bins: 0 0 0 0 0 0 0 0 0 0
dram_eff_bins: 0 0 0 0 0 0 0 0 0 0
mrqq: max=6 avg=0.114635
Memory Partition 3: 
Cache L2_bank_006:
MSHR contents

Cache L2_bank_007:
MSHR contents

In Dram Latency Queue (total = 0): 
DRAM[3]: 16 bks, busW=4 BL=8 CL=12, tRRD=2 tCCD=6, tRCD=12 tRAS=28 tRP=12 tRC=40
n_cmd=2097622 n_nop=1971831 n_act=24373 n_pre=24357 n_req=38705 n_rd=75596 n_write=1465 bw_util=0.07347
n_activity=872261 dram_eff=0.1767
bk0: 4610a 2047067i bk1: 4702a 2045890i bk2: 4408a 2048403i bk3: 4618a 2046022i bk4: 4616a 2047836i bk5: 4738a 2045503i bk6: 4922a 2043067i bk7: 4800a 2044233i bk8: 5046a 2043806i bk9: 5028a 2043038i bk10: 4762a 2045910i bk11: 4642a 2047350i bk12: 4784a 2045292i bk13: 4738a 2044723i bk14: 4426a 2048824i bk15: 4756a 2045204i 
dram_util_bins: 0 0 0 0 0 0 0 0 0 0
dram_eff_bins: 0 0 0 0 0 0 0 0 0 0
mrqq: max=6 avg=0.111173
Memory Partition 4: 
Cache L2_bank_008:
MSHR contents

Cache L2_bank_009:
MSHR contents

In Dram Latency Queue (total = 0): 
DRAM[4]: 16 bks, busW=4 BL=8 CL=12, tRRD=2 tCCD=6, tRCD=12 tRAS=28 tRP=12 tRC=40
n_cmd=2097622 n_nop=1973418 n_act=24067 n_pre=24051 n_req=38206 n_rd=74640 n_write=1446 bw_util=0.07255
n_activity=853037 dram_eff=0.1784
bk0: 4640a 2046811i bk1: 4708a 2045407i bk2: 4538a 2046807i bk3: 4544a 2046289i bk4: 4624a 2047026i bk5: 4622a 2046621i bk6: 4710a 2045014i bk7: 4842a 2043512i bk8: 4838a 2045407i bk9: 4644a 2047068i bk10: 4510a 2049297i bk11: 4854a 2045358i bk12: 4934a 2044215i bk13: 4688a 2046035i bk14: 4368a 2049058i bk15: 4576a 2047006i 
dram_util_bins: 0 0 0 0 0 0 0 0 0 0
dram_eff_bins: 0 0 0 0 0 0 0 0 0 0
mrqq: max=6 avg=0.114712
Memory Partition 5: 
Cache L2_bank_010:
MSHR contents

Cache L2_bank_011:
MSHR contents

In Dram Latency Queue (total = 0): 
DRAM[5]: 16 bks, busW=4 BL=8 CL=12, tRRD=2 tCCD=6, tRCD=12 tRAS=28 tRP=12 tRC=40
n_cmd=2097622 n_nop=1973080 n_act=24148 n_pre=24132 n_req=38290 n_rd=74828 n_write=1434 bw_util=0.07271
n_activity=855628 dram_eff=0.1783
bk0: 4682a 2046141i bk1: 4782a 2045560i bk2: 4542a 2046957i bk3: 4552a 2045985i bk4: 4766a 2045041i bk5: 4644a 2046488i bk6: 4812a 2044119i bk7: 4794a 2043348i bk8: 4740a 2046320i bk9: 4644a 2047124i bk10: 4604a 2047997i bk11: 4792a 2045966i bk12: 4826a 2045371i bk13: 4730a 2046089i bk14: 4586a 2046201i bk15: 4332a 2050121i 
dram_util_bins: 0 0 0 0 0 0 0 0 0 0
dram_eff_bins: 0 0 0 0 0 0 0 0 0 0
mrqq: max=8 avg=0.113813

========= L2 cache stats =========
L2_cache_bank[0]: Access = 272950, Miss = 18634, Miss_rate = 0.068, Pending_hits = 6080, Reservation_fails = 11271
L2_cache_bank[1]: Access = 172683, Miss = 18830, Miss_rate = 0.109, Pending_hits = 7179, Reservation_fails = 11646
L2_cache_bank[2]: Access = 234166, Miss = 18790, Miss_rate = 0.080, Pending_hits = 6468, Reservation_fails = 10580
L2_cache_bank[3]: Access = 172534, Miss = 18806, Miss_rate = 0.109, Pending_hits = 7225, Reservation_fails = 12221
L2_cache_bank[4]: Access = 221334, Miss = 18891, Miss_rate = 0.085, Pending_hits = 6544, Reservation_fails = 8724
L2_cache_bank[5]: Access = 184233, Miss = 18849, Miss_rate = 0.102, Pending_hits = 7200, Reservation_fails = 11625
L2_cache_bank[6]: Access = 219591, Miss = 18787, Miss_rate = 0.086, Pending_hits = 6659, Reservation_fails = 8784
L2_cache_bank[7]: Access = 222029, Miss = 19011, Miss_rate = 0.086, Pending_hits = 6845, Reservation_fails = 11578
L2_cache_bank[8]: Access = 185968, Miss = 18581, Miss_rate = 0.100, Pending_hits = 6824, Reservation_fails = 9570
L2_cache_bank[9]: Access = 213305, Miss = 18739, Miss_rate = 0.088, Pending_hits = 6763, Reservation_fails = 10480
L2_cache_bank[10]: Access = 183918, Miss = 18779, Miss_rate = 0.102, Pending_hits = 7050, Reservation_fails = 10969
L2_cache_bank[11]: Access = 210478, Miss = 18635, Miss_rate = 0.089, Pending_hits = 6556, Reservation_fails = 10909
L2_total_cache_accesses = 2493189
L2_total_cache_misses = 225332
L2_total_cache_miss_rate = 0.0904
L2_total_cache_pending_hits = 81393
L2_total_cache_reservation_fails = 128357
L2_total_cache_breakdown:
	L2_cache_stats_breakdown[GLOBAL_ACC_R][HIT] = 2078255
	L2_cache_stats_breakdown[GLOBAL_ACC_R][HIT_RESERVED] = 80844
	L2_cache_stats_breakdown[GLOBAL_ACC_R][MISS] = 223880
	L2_cache_stats_breakdown[GLOBAL_ACC_R][RESERVATION_FAIL] = 127404
	L2_cache_stats_breakdown[CONST_ACC_R][HIT] = 26
	L2_cache_stats_breakdown[CONST_ACC_R][HIT_RESERVED] = 3
	L2_cache_stats_breakdown[CONST_ACC_R][MISS] = 1
	L2_cache_stats_breakdown[CONST_ACC_R][RESERVATION_FAIL] = 107
	L2_cache_stats_breakdown[GLOBAL_ACC_W][HIT] = 108033
	L2_cache_stats_breakdown[GLOBAL_ACC_W][HIT_RESERVED] = 528
	L2_cache_stats_breakdown[GLOBAL_ACC_W][MISS] = 1439
	L2_cache_stats_breakdown[GLOBAL_ACC_W][RESERVATION_FAIL] = 284
	L2_cache_stats_breakdown[INST_ACC_R][HIT] = 150
	L2_cache_stats_breakdown[INST_ACC_R][HIT_RESERVED] = 18
	L2_cache_stats_breakdown[INST_ACC_R][MISS] = 12
	L2_cache_stats_breakdown[INST_ACC_R][RESERVATION_FAIL] = 562
L2_cache_data_port_util = 0.147
L2_cache_fill_port_util = 0.036

icnt_total_pkts_mem_to_simt=6840193
icnt_total_pkts_simt_to_mem=2603189
LD_mem_lat_dist  0 0 0 0 0 0 0 0 0 0 0 0 0 0 0 0 0 0 0 0 0 0 0 0 0 0 0
ST_mem_lat_dist  0 0 0 0 0 0 0 0 0 0 0 0 0 0 0 0 0 0 0 0 0 0 0 0 0 0 0
----------------------------Interconnect-DETAILS--------------------------------
Class 0:
Packet latency average = 107.82
	minimum = 6
	maximum = 1105
Network latency average = 58.5879
	minimum = 6
	maximum = 732
Slowest packet = 2688933
Flit latency average = 37.8398
	minimum = 6
	maximum = 732
Slowest flit = 6052953
Fragmentation average = 0.0137278
	minimum = 0
	maximum = 339
Injected packet rate average = 0.0784909
	minimum = 0.0701534 (at node 13)
	maximum = 0.119759 (at node 22)
Accepted packet rate average = 0.0784909
	minimum = 0.0701534 (at node 13)
	maximum = 0.119759 (at node 22)
Injected flit rate average = 0.148165
	minimum = 0.0732111 (at node 13)
	maximum = 0.36928 (at node 22)
Accepted flit rate average= 0.148165
	minimum = 0.0768269 (at node 21)
	maximum = 0.196339 (at node 10)
Injected packet length average = 1.88767
Accepted packet length average = 1.88767
Total in-flight flits = 0 (0 measured)
====== Overall Traffic Statistics ======
====== Traffic class 0 ======
Packet latency average = 100.393 (2 samples)
	minimum = 6 (2 samples)
	maximum = 1120.5 (2 samples)
Network latency average = 54.6665 (2 samples)
	minimum = 6 (2 samples)
	maximum = 779.5 (2 samples)
Flit latency average = 35.9879 (2 samples)
	minimum = 6 (2 samples)
	maximum = 779.5 (2 samples)
Fragmentation average = 0.0119052 (2 samples)
	minimum = 0 (2 samples)
	maximum = 352.5 (2 samples)
Injected packet rate average = 0.088376 (2 samples)
	minimum = 0.0785911 (2 samples)
	maximum = 0.135816 (2 samples)
Accepted packet rate average = 0.088376 (2 samples)
	minimum = 0.0785911 (2 samples)
	maximum = 0.135816 (2 samples)
Injected flit rate average = 0.167386 (2 samples)
	minimum = 0.0820687 (2 samples)
	maximum = 0.420355 (2 samples)
Accepted flit rate average = 0.167386 (2 samples)
	minimum = 0.0857829 (2 samples)
	maximum = 0.222209 (2 samples)
Injected packet size average = 1.89403 (2 samples)
Accepted packet size average = 1.89403 (2 samples)
Hops average = 1 (2 samples)
----------------------------END-of-Interconnect-DETAILS-------------------------


gpgpu_simulation_time = 0 days, 2 hrs, 31 min, 29 sec (9089 sec)
gpgpu_simulation_rate = 35943 (inst/sec)
gpgpu_simulation_rate = 230 (cycle/sec)
GPGPU-Sim: synchronize waiting for inactive GPU simulation
GPGPU-Sim API: Stream Manager State
GPGPU-Sim: detected inactive GPU simulation thread
Time spent in different stages of GPU_CUDA KERNEL:
 0.000079999998 s,  0.000002950365 % : GPU: SET DEVICE / DRIVER INIT
 0.000004000000 s,  0.000000147518 % : GPU MEM: ALO
 2.681191921234 s,  0.098881170154 % : GPU MEM: COPY IN
2708.844238281250 s, 99.900978088379 % : GPU: KERNEL
 0.003714000108 s,  0.000136970673 % : GPU MEM: COPY OUT
 0.000002000000 s,  0.000000073759 % : GPU MEM: FRE
Total time:
2711.529296875000 s
> > > > > > > > > > 
