

        *** GPGPU-Sim Simulator Version 3.2.2  [build 0] ***


GPGPU-Sim PTX: simulation mode 0 (can change with PTX_SIM_MODE_FUNC environment variable:
               1=functional simulation only, 0=detailed performance simulator)
GPGPU-Sim: Configuration options:

-network_mode                           1 # Interconnection network mode
-inter_config_file   config_fermi_islip.icnt # Interconnection network config file
-gpgpu_ptx_use_cuobjdump                    1 # Use cuobjdump to extract ptx and sass from binaries
-gpgpu_experimental_lib_support                    0 # Try to extract code from cuda libraries [Broken because of unknown cudaGetExportTable]
-gpgpu_ptx_convert_to_ptxplus                    0 # Convert SASS (native ISA) to ptxplus and run ptxplus
-gpgpu_ptx_force_max_capability                   20 # Force maximum compute capability
-gpgpu_ptx_inst_debug_to_file                    0 # Dump executed instructions' debug information to file
-gpgpu_ptx_inst_debug_file       inst_debug.txt # Executed instructions' debug output file
-gpgpu_ptx_inst_debug_thread_uid                    1 # Thread UID for executed instructions' debug output
-gpgpu_simd_model                       1 # 1 = post-dominator
-gpgpu_shader_core_pipeline              1536:32 # shader core pipeline config, i.e., {<nthread>:<warpsize>}
-gpgpu_tex_cache:l1  4:128:24,L:R:m:N:L,F:128:4,128:2 # per-shader L1 texture cache  (READ-ONLY) config  {<nsets>:<bsize>:<assoc>,<rep>:<wr>:<alloc>:<wr_alloc>,<mshr>:<N>:<merge>,<mq>:<rf>}
-gpgpu_const_cache:l1 64:64:2,L:R:f:N:L,A:2:32,4 # per-shader L1 constant memory cache  (READ-ONLY) config  {<nsets>:<bsize>:<assoc>,<rep>:<wr>:<alloc>:<wr_alloc>,<mshr>:<N>:<merge>,<mq>} 
-gpgpu_cache:il1     4:128:4,L:R:f:N:L,A:2:32,4 # shader L1 instruction cache config  {<nsets>:<bsize>:<assoc>,<rep>:<wr>:<alloc>:<wr_alloc>,<mshr>:<N>:<merge>,<mq>} 
-gpgpu_cache:dl1     32:128:4,L:L:m:N:H,A:32:8,8 # per-shader L1 data cache config  {<nsets>:<bsize>:<assoc>,<rep>:<wr>:<alloc>:<wr_alloc>,<mshr>:<N>:<merge>,<mq> | none}
-gpgpu_cache:dl1PrefL1                 none # per-shader L1 data cache config  {<nsets>:<bsize>:<assoc>,<rep>:<wr>:<alloc>:<wr_alloc>,<mshr>:<N>:<merge>,<mq> | none}
-gpgpu_cache:dl1PreShared                 none # per-shader L1 data cache config  {<nsets>:<bsize>:<assoc>,<rep>:<wr>:<alloc>:<wr_alloc>,<mshr>:<N>:<merge>,<mq> | none}
-gmem_skip_L1D                          0 # global memory access skip L1D cache (implements -Xptxas -dlcm=cg, default=no skip)
-gpgpu_perfect_mem                      0 # enable perfect memory mode (no cache miss)
-n_regfile_gating_group                    4 # group of lanes that should be read/written together)
-gpgpu_clock_gated_reg_file                    0 # enable clock gated reg file for power calculations
-gpgpu_clock_gated_lanes                    0 # enable clock gated lanes for power calculations
-gpgpu_shader_registers                32768 # Number of registers per shader core. Limits number of concurrent CTAs. (default 8192)
-gpgpu_shader_cta                       8 # Maximum number of concurrent CTAs in shader (default 8)
-gpgpu_num_cta_barriers                   16 # Maximum number of named barriers per CTA (default 16)
-gpgpu_n_clusters                      15 # number of processing clusters
-gpgpu_n_cores_per_cluster                    1 # number of simd cores per cluster
-gpgpu_n_cluster_ejection_buffer_size                    8 # number of packets in ejection buffer
-gpgpu_n_ldst_response_buffer_size                    2 # number of response packets in ld/st unit ejection buffer
-gpgpu_shmem_size                   16384 # Size of shared memory per shader core (default 16kB)
-gpgpu_shmem_size                   49152 # Size of shared memory per shader core (default 16kB)
-gpgpu_shmem_size_PrefL1                16384 # Size of shared memory per shader core (default 16kB)
-gpgpu_shmem_size_PrefShared                16384 # Size of shared memory per shader core (default 16kB)
-gpgpu_shmem_num_banks                   32 # Number of banks in the shared memory in each shader core (default 16)
-gpgpu_shmem_limited_broadcast                    0 # Limit shared memory to do one broadcast per cycle (default on)
-gpgpu_shmem_warp_parts                    1 # Number of portions a warp is divided into for shared memory bank conflict check 
-gpgpu_warpdistro_shader                   -1 # Specify which shader core to collect the warp size distribution from
-gpgpu_warp_issue_shader                    0 # Specify which shader core to collect the warp issue distribution from
-gpgpu_local_mem_map                    1 # Mapping from local memory space address to simulated GPU physical address space (default = enabled)
-gpgpu_num_reg_banks                   16 # Number of register banks (default = 8)
-gpgpu_reg_bank_use_warp_id                    0 # Use warp ID in mapping registers to banks (default = off)
-gpgpu_operand_collector_num_units_sp                    6 # number of collector units (default = 4)
-gpgpu_operand_collector_num_units_sfu                    8 # number of collector units (default = 4)
-gpgpu_operand_collector_num_units_mem                    2 # number of collector units (default = 2)
-gpgpu_operand_collector_num_units_gen                    0 # number of collector units (default = 0)
-gpgpu_operand_collector_num_in_ports_sp                    2 # number of collector unit in ports (default = 1)
-gpgpu_operand_collector_num_in_ports_sfu                    1 # number of collector unit in ports (default = 1)
-gpgpu_operand_collector_num_in_ports_mem                    1 # number of collector unit in ports (default = 1)
-gpgpu_operand_collector_num_in_ports_gen                    0 # number of collector unit in ports (default = 0)
-gpgpu_operand_collector_num_out_ports_sp                    2 # number of collector unit in ports (default = 1)
-gpgpu_operand_collector_num_out_ports_sfu                    1 # number of collector unit in ports (default = 1)
-gpgpu_operand_collector_num_out_ports_mem                    1 # number of collector unit in ports (default = 1)
-gpgpu_operand_collector_num_out_ports_gen                    0 # number of collector unit in ports (default = 0)
-gpgpu_coalesce_arch                   13 # Coalescing arch (default = 13, anything else is off for now)
-gpgpu_num_sched_per_core                    2 # Number of warp schedulers per core
-gpgpu_max_insn_issue_per_warp                    1 # Max number of instructions that can be issued per warp in one cycle by scheduler
-gpgpu_simt_core_sim_order                    1 # Select the simulation order of cores in a cluster (0=Fix, 1=Round-Robin)
-gpgpu_pipeline_widths        2,1,1,2,1,1,2 # Pipeline widths ID_OC_SP,ID_OC_SFU,ID_OC_MEM,OC_EX_SP,OC_EX_SFU,OC_EX_MEM,EX_WB
-gpgpu_num_sp_units                     2 # Number of SP units (default=1)
-gpgpu_num_sfu_units                    1 # Number of SF units (default=1)
-gpgpu_num_mem_units                    1 # Number if ldst units (default=1) WARNING: not hooked up to anything
-gpgpu_scheduler                      gto # Scheduler configuration: < lrr | gto | two_level_active > If two_level_active:<num_active_warps>:<inner_prioritization>:<outer_prioritization>For complete list of prioritization values see shader.h enum scheduler_prioritization_typeDefault: gto
-gpgpu_dram_scheduler                    1 # 0 = fifo, 1 = FR-FCFS (defaul)
-gpgpu_dram_partition_queues              8:8:8:8 # i2$:$2d:d2$:$2i
-l2_ideal                               0 # Use a ideal L2 cache that always hit
-gpgpu_cache:dl2     64:128:8,L:B:m:W:L,A:32:4,4:0,32 # unified banked L2 data cache config  {<nsets>:<bsize>:<assoc>,<rep>:<wr>:<alloc>:<wr_alloc>,<mshr>:<N>:<merge>,<mq>}
-gpgpu_cache:dl2_texture_only                    0 # L2 cache used for texture only
-gpgpu_n_mem                            6 # number of memory modules (e.g. memory controllers) in gpu
-gpgpu_n_sub_partition_per_mchannel                    2 # number of memory subpartition in each memory module
-gpgpu_n_mem_per_ctrlr                    2 # number of memory chips per memory controller
-gpgpu_memlatency_stat                   14 # track and display latency statistics 0x2 enables MC, 0x4 enables queue logs
-gpgpu_frfcfs_dram_sched_queue_size                   16 # 0 = unlimited (default); # entries per chip
-gpgpu_dram_return_queue_size                   84 # 0 = unlimited (default); # entries per chip
-gpgpu_dram_buswidth                    4 # default = 4 bytes (8 bytes per cycle at DDR)
-gpgpu_dram_burst_length                    8 # Burst length of each DRAM request (default = 4 data bus cycle)
-dram_data_command_freq_ratio                    4 # Frequency ratio between DRAM data bus and command bus (default = 2 times, i.e. DDR)
-gpgpu_dram_timing_opt nbk=16:CCD=2:RRD=6:RCD=12:RAS=28:RP=12:RC=40: CL=12:WL=4:CDLR=5:WR=12:nbkgrp=4:CCDL=3:RTPL=2 # DRAM timing parameters = {nbk:tCCD:tRRD:tRCD:tRAS:tRP:tRC:CL:WL:tCDLR:tWR:nbkgrp:tCCDL:tRTPL}
-rop_latency                          120 # ROP queue latency (default 85)
-dram_latency                         100 # DRAM latency (default 30)
-gpgpu_mem_addr_mapping dramid@8;00000000.00000000.00000000.00000000.0000RRRR.RRRRRRRR.BBBCCCCB.CCSSSSSS # mapping memory address to dram model {dramid@<start bit>;<memory address map>}
-gpgpu_mem_addr_test                    0 # run sweep test to check address mapping for aliased address
-gpgpu_mem_address_mask                    1 # 0 = old addressing mask, 1 = new addressing mask, 2 = new add. mask + flipped bank sel and chip sel bits
-gpuwattch_xml_file  gpuwattch_gtx480.xml # GPUWattch XML file
-power_simulation_enabled                    1 # Turn on power simulator (1=On, 0=Off)
-power_per_cycle_dump                    0 # Dump detailed power output each cycle
-power_trace_enabled                    0 # produce a file for the power trace (1=On, 0=Off)
-power_trace_zlevel                     6 # Compression level of the power trace output log (0=no comp, 9=highest)
-steady_power_levels_enabled                    0 # produce a file for the steady power levels (1=On, 0=Off)
-steady_state_definition                  8:4 # allowed deviation:number of samples
-gpgpu_max_cycle                        0 # terminates gpu simulation early (0 = no limit)
-gpgpu_max_insn                         0 # terminates gpu simulation early (0 = no limit)
-gpgpu_max_cta                          0 # terminates gpu simulation early (0 = no limit)
-gpgpu_runtime_stat                   500 # display runtime statistics such as dram utilization {<freq>:<flag>}
-liveness_message_freq                    1 # Minimum number of seconds between simulation liveness messages (0 = always print)
-gpgpu_flush_l1_cache                    0 # Flush L1 cache at the end of each kernel call
-gpgpu_flush_l2_cache                    0 # Flush L2 cache at the end of each kernel call
-gpgpu_deadlock_detect                    1 # Stop the simulation at deadlock (1=on (default), 0=off)
-gpgpu_ptx_instruction_classification                    0 # if enabled will classify ptx instruction types per kernel (Max 255 kernels now)
-gpgpu_ptx_sim_mode                     0 # Select between Performance (default) or Functional simulation (1)
-gpgpu_clock_domains 700.0:700.0:700.0:700.0 # Clock Domain Frequencies in MhZ {<Core Clock>:<ICNT Clock>:<L2 Clock>:<DRAM Clock>}
-gpgpu_max_concurrent_kernel                    8 # maximum kernels that can run concurrently on GPU
-gpgpu_cflog_interval                    0 # Interval between each snapshot in control flow logger
-visualizer_enabled                     0 # Turn on visualizer output (1=On, 0=Off)
-visualizer_outputfile                 NULL # Specifies the output log file for visualizer
-visualizer_zlevel                      6 # Compression level of the visualizer output log (0=no comp, 9=highest)
-trace_enabled                          0 # Turn on traces
-trace_components                    none # comma seperated list of traces to enable. Complete list found in trace_streams.tup. Default none
-trace_sampling_core                    0 # The core which is printed using CORE_DPRINTF. Default 0
-trace_sampling_memory_partition                   -1 # The memory partition which is printed using MEMPART_DPRINTF. Default -1 (i.e. all)
-enable_ptx_file_line_stats                    1 # Turn on PTX source line statistic profiling. (1 = On)
-ptx_line_stats_filename gpgpu_inst_stats.txt # Output file for PTX source line statistics.
-save_embedded_ptx                      0 # saves ptx files embedded in binary as <n>.ptx
-keep                                   0 # keep intermediate files created by GPGPU-Sim when interfacing with external programs
-gpgpu_ptx_save_converted_ptxplus                    0 # Saved converted ptxplus to a file
-ptx_opcode_latency_int         4,13,4,5,145 # Opcode latencies for integers <ADD,MAX,MUL,MAD,DIV>Default 1,1,19,25,145
-ptx_opcode_latency_fp          4,13,4,5,39 # Opcode latencies for single precision floating points <ADD,MAX,MUL,MAD,DIV>Default 1,1,1,1,30
-ptx_opcode_latency_dp         8,19,8,8,330 # Opcode latencies for double precision floating points <ADD,MAX,MUL,MAD,DIV>Default 8,8,8,8,335
-ptx_opcode_initiation_int            1,2,2,1,8 # Opcode initiation intervals for integers <ADD,MAX,MUL,MAD,DIV>Default 1,1,4,4,32
-ptx_opcode_initiation_fp            1,2,1,1,4 # Opcode initiation intervals for single precision floating points <ADD,MAX,MUL,MAD,DIV>Default 1,1,1,1,5
-ptx_opcode_initiation_dp         8,16,8,8,130 # Opcode initiation intervals for double precision floating points <ADD,MAX,MUL,MAD,DIV>Default 8,8,8,8,130
DRAM Timing Options:
nbk                                    16 # number of banks
CCD                                     2 # column to column delay
RRD                                     6 # minimal delay between activation of rows in different banks
RCD                                    12 # row to column delay
RAS                                    28 # time needed to activate row
RP                                     12 # time needed to precharge (deactivate) row
RC                                     40 # row cycle time
CDLR                                    5 # switching from write to read (changes tWTR)
WR                                     12 # last data-in to row precharge
CL                                     12 # CAS latency
WL                                      4 # Write latency
nbkgrp                                  4 # number of bank groups
CCDL                                    3 # column to column delay between accesses to different bank groups
RTPL                                    2 # read to precharge delay between accesses to different bank groups
Total number of memory sub partition = 12
addr_dec_mask[CHIP]  = 0000000000000000 	high:64 low:0
addr_dec_mask[BK]    = 000000000000e100 	high:16 low:8
addr_dec_mask[ROW]   = 000000000fff0000 	high:28 low:16
addr_dec_mask[COL]   = 0000000000001eff 	high:13 low:0
addr_dec_mask[BURST] = 000000000000003f 	high:6 low:0
sub_partition_id_mask = 0000000000000100
GPGPU-Sim uArch: clock freqs: 700000000.000000:700000000.000000:700000000.000000:700000000.000000
GPGPU-Sim uArch: clock periods: 0.00000000142857142857:0.00000000142857142857:0.00000000142857142857:0.00000000142857142857
*** Initializing Memory Statistics ***
GPGPU-Sim uArch: interconnect node map (shaderID+MemID to icntID)
GPGPU-Sim uArch: Memory nodes ID start from index: 15
GPGPU-Sim uArch:    0   1   2   3   4
GPGPU-Sim uArch:    5   6   7   8   9
GPGPU-Sim uArch:   10  11  12  13  14
GPGPU-Sim uArch:   15  16  17  18  19
GPGPU-Sim uArch:   20  21  22  23  24
GPGPU-Sim uArch:   25  26
GPGPU-Sim uArch: interconnect node reverse map (icntID to shaderID+MemID)
GPGPU-Sim uArch: Memory nodes start from ID: 15
GPGPU-Sim uArch:    0   1   2   3   4
GPGPU-Sim uArch:    5   6   7   8   9
GPGPU-Sim uArch:   10  11  12  13  14
GPGPU-Sim uArch:   15  16  17  18  19
GPGPU-Sim uArch:   20  21  22  23  24
GPGPU-Sim uArch:   25  26
f4e1a13b3ba5c4597b0283ca24479643  /home/gpgpu-sim/ECE523_Repo/benchmarks/test/b+tree-rodinia-3.1
GPGPU-Sim uArch: performance model initialization complete.
GPGPU-Sim PTX: __cudaRegisterFatBinary, fat_cubin_handle = 1, filename=./kernel/kernel_gpu_cuda_wrapper.cu
self exe links to: /home/gpgpu-sim/ECE523_Repo/benchmarks/test/b+tree-rodinia-3.1
Running md5sum using "md5sum /home/gpgpu-sim/ECE523_Repo/benchmarks/test/b+tree-rodinia-3.1 "
Running cuobjdump using "$CUDA_INSTALL_PATH/bin/cuobjdump -ptx -elf -sass /home/gpgpu-sim/ECE523_Repo/benchmarks/test/b+tree-rodinia-3.1 > _cuobjdump_complete_output_KBGzZR"
Parsing file _cuobjdump_complete_output_KBGzZR
######### cuobjdump parser ########
## Adding new section ELF
Adding arch: sm_30
Adding identifier: ./kernel/kernel_gpu_cuda_wrapper.cu
## Adding new section PTX
Adding ptx filename: _cuobjdump_1.ptx
Adding arch: sm_30
Adding identifier: ./kernel/kernel_gpu_cuda_wrapper.cu
## Adding new section ELF
Adding arch: sm_13
Adding identifier: ./kernel/kernel_gpu_cuda_wrapper.cu
## Adding new section PTX
Adding ptx filename: _cuobjdump_2.ptx
Adding arch: sm_13
Adding identifier: ./kernel/kernel_gpu_cuda_wrapper.cu
## Adding new section ELF
Adding arch: sm_20
Adding identifier: ./kernel/kernel_gpu_cuda_wrapper.cu
## Adding new section PTX
Adding ptx filename: _cuobjdump_3.ptx
Adding arch: sm_20
Adding identifier: ./kernel/kernel_gpu_cuda_wrapper.cu
## Adding new section ELF
Adding arch: sm_10
Adding identifier: ./kernel/kernel_gpu_cuda_wrapper.cu
## Adding new section PTX
Adding ptx filename: _cuobjdump_4.ptx
Adding arch: sm_10
Adding identifier: ./kernel/kernel_gpu_cuda_wrapper.cu
## Adding new section ELF
Adding arch: sm_30
Adding identifier: ./kernel/kernel_gpu_cuda_wrapper_2.cu
## Adding new section PTX
Adding ptx filename: _cuobjdump_5.ptx
Adding arch: sm_30
Adding identifier: ./kernel/kernel_gpu_cuda_wrapper_2.cu
## Adding new section ELF
Adding arch: sm_13
Adding identifier: ./kernel/kernel_gpu_cuda_wrapper_2.cu
## Adding new section PTX
Adding ptx filename: _cuobjdump_6.ptx
Adding arch: sm_13
Adding identifier: ./kernel/kernel_gpu_cuda_wrapper_2.cu
## Adding new section ELF
Adding arch: sm_20
Adding identifier: ./kernel/kernel_gpu_cuda_wrapper_2.cu
## Adding new section PTX
Adding ptx filename: _cuobjdump_7.ptx
Adding arch: sm_20
Adding identifier: ./kernel/kernel_gpu_cuda_wrapper_2.cu
## Adding new section ELF
Adding arch: sm_10
Adding identifier: ./kernel/kernel_gpu_cuda_wrapper_2.cu
## Adding new section PTX
Adding ptx filename: _cuobjdump_8.ptx
Adding arch: sm_10
Adding identifier: ./kernel/kernel_gpu_cuda_wrapper_2.cu
## Adding new section ELF
Adding arch: sm_30
Adding identifier: ./util/cuda/cuda.cu
## Adding new section PTX
Adding ptx filename: _cuobjdump_9.ptx
Adding arch: sm_30
Adding identifier: ./util/cuda/cuda.cu
## Adding new section ELF
Adding arch: sm_13
Adding identifier: ./util/cuda/cuda.cu
## Adding new section PTX
Adding ptx filename: _cuobjdump_10.ptx
Adding arch: sm_13
Adding identifier: ./util/cuda/cuda.cu
## Adding new section ELF
Adding arch: sm_20
Adding identifier: ./util/cuda/cuda.cu
## Adding new section PTX
Adding ptx filename: _cuobjdump_11.ptx
Adding arch: sm_20
Adding identifier: ./util/cuda/cuda.cu
## Adding new section ELF
Adding arch: sm_10
Adding identifier: ./util/cuda/cuda.cu
## Adding new section PTX
Adding ptx filename: _cuobjdump_12.ptx
Adding arch: sm_10
Adding identifier: ./util/cuda/cuda.cu
Done parsing!!!
GPGPU-Sim PTX: __cudaRegisterFunction findK : hostFun 0x0x405a30, fat_cubin_handle = 1
GPGPU-Sim PTX: instruction assembly for function 'findK'...   done.
GPGPU-Sim PTX: finding reconvergence points for 'findK'...
GPGPU-Sim PTX: Finding dominators for 'findK'...
GPGPU-Sim PTX: Finding immediate dominators for 'findK'...
GPGPU-Sim PTX: Finding postdominators for 'findK'...
GPGPU-Sim PTX: Finding immediate postdominators for 'findK'...
GPGPU-Sim PTX: pre-decoding instructions for 'findK'...
GPGPU-Sim PTX: reconvergence points for findK...
GPGPU-Sim PTX:  1 (potential) branch divergence @  PC=0x090 (_1.ptx:54) @%p2 bra BB0_9;
GPGPU-Sim PTX:    immediate post dominator      @  PC=0x1b0 (_1.ptx:121) mov.u32 %r18, %tid.x;
GPGPU-Sim PTX:  2 (potential) branch divergence @  PC=0x100 (_1.ptx:77) @%p3 bra BB0_6;
GPGPU-Sim PTX:    immediate post dominator      @  PC=0x160 (_1.ptx:99) bar.sync 0;
GPGPU-Sim PTX:  3 (potential) branch divergence @  PC=0x118 (_1.ptx:81) @%p4 bra BB0_6;
GPGPU-Sim PTX:    immediate post dominator      @  PC=0x160 (_1.ptx:99) bar.sync 0;
GPGPU-Sim PTX:  4 (potential) branch divergence @  PC=0x150 (_1.ptx:92) @%p5 bra BB0_6;
GPGPU-Sim PTX:    immediate post dominator      @  PC=0x160 (_1.ptx:99) bar.sync 0;
GPGPU-Sim PTX:  5 (potential) branch divergence @  PC=0x168 (_1.ptx:101) @!%p1 bra BB0_8;
GPGPU-Sim PTX:    immediate post dominator      @  PC=0x180 (_1.ptx:109) bar.sync 0;
GPGPU-Sim PTX:  6 (potential) branch divergence @  PC=0x1a8 (_1.ptx:117) @%p6 bra BB0_2;
GPGPU-Sim PTX:    immediate post dominator      @  PC=0x1b0 (_1.ptx:121) mov.u32 %r18, %tid.x;
GPGPU-Sim PTX:  7 (potential) branch divergence @  PC=0x1f0 (_1.ptx:131) @%p7 bra BB0_11;
GPGPU-Sim PTX:    immediate post dominator      @ 
GPGPU-Sim PTX: ... end of reconvergence points for findK
GPGPU-Sim PTX: ... done pre-decoding instructions for 'findK'.
GPGPU-Sim PTX: finished parsing EMBEDDED .ptx file _1.ptx
Adding _cuobjdump_3.ptx with cubin handle 1
GPGPU-Sim PTX: extracting embedded .ptx to temporary file "_ptx_QklOLd"
Running: cat _ptx_QklOLd | sed 's/.version 1.5/.version 1.4/' | sed 's/, texmode_independent//' | sed 's/\(\.extern \.const\[1\] .b8 \w\+\)\[\]/\1\[1\]/' | sed 's/const\[.\]/const\[0\]/g' > _ptx2_54n5xz
GPGPU-Sim PTX: generating ptxinfo using "$CUDA_INSTALL_PATH/bin/ptxas --gpu-name=sm_20 -v _ptx2_54n5xz --output-file  /dev/null 2> _ptx_QklOLdinfo"
GPGPU-Sim PTX: Kernel 'findK' : regs=14, lmem=0, smem=0, cmem=96
GPGPU-Sim PTX: removing ptxinfo using "rm -f _ptx_QklOLd _ptx2_54n5xz _ptx_QklOLdinfo"
GPGPU-Sim PTX: loading globals with explicit initializers... 
GPGPU-Sim PTX: finished loading globals (0 bytes total).
GPGPU-Sim PTX: loading constants with explicit initializers...  done.
GPGPU-Sim PTX: __cudaRegisterFatBinary, fat_cubin_handle = 2, filename=./kernel/kernel_gpu_cuda_wrapper_2.cu
GPGPU-Sim PTX: __cudaRegisterFunction findRangeK : hostFun 0x0x4060d0, fat_cubin_handle = 2
GPGPU-Sim PTX: instruction assembly for function 'findRangeK'...   done.
GPGPU-Sim PTX: finding reconvergence points for 'findRangeK'...
GPGPU-Sim PTX: Finding dominators for 'findRangeK'...
GPGPU-Sim PTX: Finding immediate dominators for 'findRangeK'...
GPGPU-Sim PTX: Finding postdominators for 'findRangeK'...
GPGPU-Sim PTX: Finding immediate postdominators for 'findRangeK'...
GPGPU-Sim PTX: pre-decoding instructions for 'findRangeK'...
GPGPU-Sim PTX: reconvergence points for findRangeK...
GPGPU-Sim PTX:  1 (potential) branch divergence @  PC=0x318 (_2.ptx:65) @%p1 bra BB0_13;
GPGPU-Sim PTX:    immediate post dominator      @  PC=0x4b0 (_2.ptx:156) mov.u32 %r30, %tid.x;
GPGPU-Sim PTX:  2 (potential) branch divergence @  PC=0x380 (_2.ptx:86) @%p2 bra BB0_6;
GPGPU-Sim PTX:    immediate post dominator      @  PC=0x3c8 (_2.ptx:104) ld.global.u64 %rl41, [%rl11];
GPGPU-Sim PTX:  3 (potential) branch divergence @  PC=0x398 (_2.ptx:90) @%p3 bra BB0_6;
GPGPU-Sim PTX:    immediate post dominator      @  PC=0x3c8 (_2.ptx:104) ld.global.u64 %rl41, [%rl11];
GPGPU-Sim PTX:  4 (potential) branch divergence @  PC=0x3b8 (_2.ptx:97) @%p4 bra BB0_6;
GPGPU-Sim PTX:    immediate post dominator      @  PC=0x3c8 (_2.ptx:104) ld.global.u64 %rl41, [%rl11];
GPGPU-Sim PTX:  5 (potential) branch divergence @  PC=0x400 (_2.ptx:112) @%p5 bra BB0_10;
GPGPU-Sim PTX:    immediate post dominator      @  PC=0x448 (_2.ptx:130) bar.sync 0;
GPGPU-Sim PTX:  6 (potential) branch divergence @  PC=0x418 (_2.ptx:116) @%p6 bra BB0_10;
GPGPU-Sim PTX:    immediate post dominator      @  PC=0x448 (_2.ptx:130) bar.sync 0;
GPGPU-Sim PTX:  7 (potential) branch divergence @  PC=0x438 (_2.ptx:123) @%p7 bra BB0_10;
GPGPU-Sim PTX:    immediate post dominator      @  PC=0x448 (_2.ptx:130) bar.sync 0;
GPGPU-Sim PTX:  8 (potential) branch divergence @  PC=0x458 (_2.ptx:133) @%p8 bra BB0_12;
GPGPU-Sim PTX:    immediate post dominator      @  PC=0x480 (_2.ptx:144) bar.sync 0;
GPGPU-Sim PTX:  9 (potential) branch divergence @  PC=0x4a8 (_2.ptx:152) @%p9 bra BB0_2;
GPGPU-Sim PTX:    immediate post dominator      @  PC=0x4b0 (_2.ptx:156) mov.u32 %r30, %tid.x;
GPGPU-Sim PTX: 10 (potential) branch divergence @  PC=0x520 (_2.ptx:175) @%p10 bra BB0_15;
GPGPU-Sim PTX:    immediate post dominator      @  PC=0x538 (_2.ptx:183) bar.sync 0;
GPGPU-Sim PTX: 11 (potential) branch divergence @  PC=0x578 (_2.ptx:193) @%p11 bra BB0_17;
GPGPU-Sim PTX:    immediate post dominator      @ 
GPGPU-Sim PTX: ... end of reconvergence points for findRangeK
GPGPU-Sim PTX: ... done pre-decoding instructions for 'findRangeK'.
GPGPU-Sim PTX: finished parsing EMBEDDED .ptx file _2.ptx
Adding _cuobjdump_7.ptx with cubin handle 2
GPGPU-Sim PTX: extracting embedded .ptx to temporary file "_ptx_TEqQxV"
Running: cat _ptx_TEqQxV | sed 's/.version 1.5/.version 1.4/' | sed 's/, texmode_independent//' | sed 's/\(\.extern \.const\[1\] .b8 \w\+\)\[\]/\1\[1\]/' | sed 's/const\[.\]/const\[0\]/g' > _ptx2_PxZFxh
GPGPU-Sim PTX: generating ptxinfo using "$CUDA_INSTALL_PATH/bin/ptxas --gpu-name=sm_20 -v _ptx2_PxZFxh --output-file  /dev/null 2> _ptx_TEqQxVinfo"
GPGPU-Sim PTX: Kernel 'findRangeK' : regs=19, lmem=0, smem=0, cmem=120
GPGPU-Sim PTX: removing ptxinfo using "rm -f _ptx_TEqQxV _ptx2_PxZFxh _ptx_TEqQxVinfo"
GPGPU-Sim PTX: loading globals with explicit initializers... 
GPGPU-Sim PTX: finished loading globals (0 bytes total).
GPGPU-Sim PTX: loading constants with explicit initializers...  done.
GPGPU-Sim PTX: __cudaRegisterFatBinary, fat_cubin_handle = 3, filename=./util/cuda/cuda.cu
WG size of kernel 1 & 2  = 256 
Selecting device 0
Input File: bt_data/mil.txt 
Command File: bt_data/command.txt 
Command Buffer: 
j 6000 3000
k 10000


Getting input from file bt_data/mil.txt...
Transforming data to a GPU suitable structure...
Tree transformation took 1.458835
Waiting for command
> 
******command: j count=6000, rSize=6000 
knodes_elem=7874, knodes_unit_mem=2068, knodes_mem=16283432
GPGPU-Sim: synchronize waiting for inactive GPU simulation
GPGPU-Sim API: Stream Manager State
GPGPU-Sim: detected inactive GPU simulation thread
# of blocks = 6000, # of threads/block = 256 (ensure that device can handle)

GPGPU-Sim PTX: cudaLaunch for 0x0x4060d0 (mode=performance simulation) on stream 0
GPGPU-Sim PTX: pushing kernel 'findRangeK' to stream 0, gridDim= (6000,1,1) blockDim = (256,1,1) 
kernel 'findRangeK' transfer to GPU hardware scheduler
GPGPU-Sim uArch: Shader 1 bind to kernel 1 'findRangeK'
GPGPU-Sim uArch: CTA/core = 6, limited by: threads regs
GPGPU-Sim uArch: core:  1, cta: 0 initialized @(1,0)
GPGPU-Sim uArch: Shader 2 bind to kernel 1 'findRangeK'
GPGPU-Sim uArch: core:  2, cta: 0 initialized @(1,0)
GPGPU-Sim uArch: Shader 3 bind to kernel 1 'findRangeK'
GPGPU-Sim uArch: core:  3, cta: 0 initialized @(1,0)
GPGPU-Sim uArch: Shader 4 bind to kernel 1 'findRangeK'
GPGPU-Sim uArch: core:  4, cta: 0 initialized @(1,0)
GPGPU-Sim uArch: Shader 5 bind to kernel 1 'findRangeK'
GPGPU-Sim uArch: core:  5, cta: 0 initialized @(1,0)
GPGPU-Sim uArch: Shader 6 bind to kernel 1 'findRangeK'
GPGPU-Sim uArch: core:  6, cta: 0 initialized @(1,0)
GPGPU-Sim uArch: Shader 7 bind to kernel 1 'findRangeK'
GPGPU-Sim uArch: core:  7, cta: 0 initialized @(1,0)
GPGPU-Sim uArch: Shader 8 bind to kernel 1 'findRangeK'
GPGPU-Sim uArch: core:  8, cta: 0 initialized @(1,0)
GPGPU-Sim uArch: Shader 9 bind to kernel 1 'findRangeK'
GPGPU-Sim uArch: core:  9, cta: 0 initialized @(1,0)
GPGPU-Sim uArch: Shader 10 bind to kernel 1 'findRangeK'
GPGPU-Sim uArch: core: 10, cta: 0 initialized @(1,0)
GPGPU-Sim uArch: Shader 11 bind to kernel 1 'findRangeK'
GPGPU-Sim uArch: core: 11, cta: 0 initialized @(1,0)
GPGPU-Sim uArch: Shader 12 bind to kernel 1 'findRangeK'
GPGPU-Sim uArch: core: 12, cta: 0 initialized @(1,0)
GPGPU-Sim uArch: Shader 13 bind to kernel 1 'findRangeK'
GPGPU-Sim uArch: core: 13, cta: 0 initialized @(1,0)
GPGPU-Sim uArch: Shader 14 bind to kernel 1 'findRangeK'
GPGPU-Sim uArch: core: 14, cta: 0 initialized @(1,0)
GPGPU-Sim uArch: Shader 0 bind to kernel 1 'findRangeK'
GPGPU-Sim uArch: core:  0, cta: 0 initialized @(1,0)
GPGPU-Sim uArch: core:  1, cta: 1 initialized @(2,0)
GPGPU-Sim uArch: core:  2, cta: 1 initialized @(2,0)
GPGPU-Sim uArch: core:  3, cta: 1 initialized @(2,0)
GPGPU-Sim uArch: core:  4, cta: 1 initialized @(2,0)
GPGPU-Sim uArch: core:  5, cta: 1 initialized @(2,0)
GPGPU-Sim uArch: core:  6, cta: 1 initialized @(2,0)
GPGPU-Sim uArch: core:  7, cta: 1 initialized @(2,0)
GPGPU-Sim uArch: core:  8, cta: 1 initialized @(2,0)
GPGPU-Sim uArch: core:  9, cta: 1 initialized @(2,0)
GPGPU-Sim uArch: core: 10, cta: 1 initialized @(2,0)
GPGPU-Sim uArch: core: 11, cta: 1 initialized @(2,0)
GPGPU-Sim uArch: core: 12, cta: 1 initialized @(2,0)
GPGPU-Sim uArch: core: 13, cta: 1 initialized @(2,0)
GPGPU-Sim uArch: core: 14, cta: 1 initialized @(2,0)
GPGPU-Sim uArch: core:  0, cta: 1 initialized @(2,0)
GPGPU-Sim uArch: core:  1, cta: 2 initialized @(3,0)
GPGPU-Sim uArch: core:  2, cta: 2 initialized @(3,0)
GPGPU-Sim uArch: core:  3, cta: 2 initialized @(3,0)
GPGPU-Sim uArch: core:  4, cta: 2 initialized @(3,0)
GPGPU-Sim uArch: core:  5, cta: 2 initialized @(3,0)
GPGPU-Sim uArch: core:  6, cta: 2 initialized @(3,0)
GPGPU-Sim uArch: core:  7, cta: 2 initialized @(3,0)
GPGPU-Sim uArch: core:  8, cta: 2 initialized @(3,0)
GPGPU-Sim uArch: core:  9, cta: 2 initialized @(3,0)
GPGPU-Sim uArch: core: 10, cta: 2 initialized @(3,0)
GPGPU-Sim uArch: core: 11, cta: 2 initialized @(3,0)
GPGPU-Sim uArch: core: 12, cta: 2 initialized @(3,0)
GPGPU-Sim uArch: core: 13, cta: 2 initialized @(3,0)
GPGPU-Sim uArch: core: 14, cta: 2 initialized @(3,0)
GPGPU-Sim uArch: core:  0, cta: 2 initialized @(3,0)
GPGPU-Sim uArch: core:  1, cta: 3 initialized @(4,0)
GPGPU-Sim uArch: core:  2, cta: 3 initialized @(4,0)
GPGPU-Sim uArch: core:  3, cta: 3 initialized @(4,0)
GPGPU-Sim uArch: core:  4, cta: 3 initialized @(4,0)
GPGPU-Sim uArch: core:  5, cta: 3 initialized @(4,0)
GPGPU-Sim uArch: core:  6, cta: 3 initialized @(4,0)
GPGPU-Sim uArch: core:  7, cta: 3 initialized @(4,0)
GPGPU-Sim uArch: core:  8, cta: 3 initialized @(4,0)
GPGPU-Sim uArch: core:  9, cta: 3 initialized @(4,0)
GPGPU-Sim uArch: core: 10, cta: 3 initialized @(4,0)
GPGPU-Sim uArch: core: 11, cta: 3 initialized @(4,0)
GPGPU-Sim uArch: core: 12, cta: 3 initialized @(4,0)
GPGPU-Sim uArch: core: 13, cta: 3 initialized @(4,0)
GPGPU-Sim uArch: core: 14, cta: 3 initialized @(4,0)
GPGPU-Sim uArch: core:  0, cta: 3 initialized @(4,0)
GPGPU-Sim uArch: core:  1, cta: 4 initialized @(5,0)
GPGPU-Sim uArch: core:  2, cta: 4 initialized @(5,0)
GPGPU-Sim uArch: core:  3, cta: 4 initialized @(5,0)
GPGPU-Sim uArch: core:  4, cta: 4 initialized @(5,0)
GPGPU-Sim uArch: core:  5, cta: 4 initialized @(5,0)
GPGPU-Sim uArch: core:  6, cta: 4 initialized @(5,0)
GPGPU-Sim uArch: core:  7, cta: 4 initialized @(5,0)
GPGPU-Sim uArch: core:  8, cta: 4 initialized @(5,0)
GPGPU-Sim uArch: core:  9, cta: 4 initialized @(5,0)
GPGPU-Sim uArch: core: 10, cta: 4 initialized @(5,0)
GPGPU-Sim uArch: core: 11, cta: 4 initialized @(5,0)
GPGPU-Sim uArch: core: 12, cta: 4 initialized @(5,0)
GPGPU-Sim uArch: core: 13, cta: 4 initialized @(5,0)
GPGPU-Sim uArch: core: 14, cta: 4 initialized @(5,0)
GPGPU-Sim uArch: core:  0, cta: 4 initialized @(5,0)
GPGPU-Sim uArch: core:  1, cta: 5 initialized @(6,0)
GPGPU-Sim uArch: core:  2, cta: 5 initialized @(6,0)
GPGPU-Sim uArch: core:  3, cta: 5 initialized @(6,0)
GPGPU-Sim uArch: core:  4, cta: 5 initialized @(6,0)
GPGPU-Sim uArch: core:  5, cta: 5 initialized @(6,0)
GPGPU-Sim uArch: core:  6, cta: 5 initialized @(6,0)
GPGPU-Sim uArch: core:  7, cta: 5 initialized @(6,0)
GPGPU-Sim uArch: core:  8, cta: 5 initialized @(6,0)
GPGPU-Sim uArch: core:  9, cta: 5 initialized @(6,0)
GPGPU-Sim uArch: core: 10, cta: 5 initialized @(6,0)
GPGPU-Sim uArch: core: 11, cta: 5 initialized @(6,0)
GPGPU-Sim uArch: core: 12, cta: 5 initialized @(6,0)
GPGPU-Sim uArch: core: 13, cta: 5 initialized @(6,0)
GPGPU-Sim uArch: core: 14, cta: 5 initialized @(6,0)
GPGPU-Sim uArch: core:  0, cta: 5 initialized @(6,0)
GPGPU-Sim uArch: cycles simulated: 500  inst.: 0 (ipc= 0.0) sim_rate=0 (inst/sec) elapsed = 0:0:00:11 / Sun Feb  3 06:55:51 2019
GPGPU-Sim PTX: 100000 instructions simulated : ctaid=(48,0,0) tid=(127,0,0)
GPGPU-Sim PTX: 200000 instructions simulated : ctaid=(25,0,0) tid=(223,0,0)
GPGPU-Sim uArch: cycles simulated: 1000  inst.: 229632 (ipc=229.6) sim_rate=17664 (inst/sec) elapsed = 0:0:00:13 / Sun Feb  3 06:55:53 2019
GPGPU-Sim PTX: 300000 instructions simulated : ctaid=(2,0,0) tid=(159,0,0)
GPGPU-Sim PTX: 400000 instructions simulated : ctaid=(26,0,0) tid=(255,0,0)
GPGPU-Sim PTX: 500000 instructions simulated : ctaid=(76,0,0) tid=(191,0,0)
GPGPU-Sim uArch: cycles simulated: 1500  inst.: 573216 (ipc=382.1) sim_rate=38214 (inst/sec) elapsed = 0:0:00:15 / Sun Feb  3 06:55:55 2019
GPGPU-Sim PTX: 600000 instructions simulated : ctaid=(2,0,0) tid=(127,0,0)
GPGPU-Sim PTX: 700000 instructions simulated : ctaid=(79,0,0) tid=(127,0,0)
GPGPU-Sim uArch: cycles simulated: 2000  inst.: 737280 (ipc=368.6) sim_rate=35108 (inst/sec) elapsed = 0:0:00:21 / Sun Feb  3 06:56:01 2019
GPGPU-Sim PTX: 800000 instructions simulated : ctaid=(76,0,0) tid=(191,0,0)
GPGPU-Sim uArch: cycles simulated: 2500  inst.: 835569 (ipc=334.2) sim_rate=32137 (inst/sec) elapsed = 0:0:00:26 / Sun Feb  3 06:56:06 2019
GPGPU-Sim PTX: 900000 instructions simulated : ctaid=(60,0,0) tid=(97,0,0)
GPGPU-Sim uArch: cycles simulated: 3000  inst.: 929731 (ipc=309.9) sim_rate=29054 (inst/sec) elapsed = 0:0:00:32 / Sun Feb  3 06:56:12 2019
GPGPU-Sim PTX: 1000000 instructions simulated : ctaid=(22,0,0) tid=(67,0,0)
GPGPU-Sim PTX: 1100000 instructions simulated : ctaid=(61,0,0) tid=(191,0,0)
GPGPU-Sim uArch: cycles simulated: 3500  inst.: 1070036 (ipc=305.7) sim_rate=28919 (inst/sec) elapsed = 0:0:00:37 / Sun Feb  3 06:56:17 2019
GPGPU-Sim uArch: cycles simulated: 4000  inst.: 1165095 (ipc=291.3) sim_rate=27740 (inst/sec) elapsed = 0:0:00:42 / Sun Feb  3 06:56:22 2019
GPGPU-Sim PTX: 1200000 instructions simulated : ctaid=(5,0,0) tid=(31,0,0)
GPGPU-Sim PTX: 1300000 instructions simulated : ctaid=(70,0,0) tid=(75,0,0)
GPGPU-Sim PTX: 1400000 instructions simulated : ctaid=(38,0,0) tid=(35,0,0)
GPGPU-Sim uArch: cycles simulated: 4500  inst.: 1371452 (ipc=304.8) sim_rate=28571 (inst/sec) elapsed = 0:0:00:48 / Sun Feb  3 06:56:28 2019
GPGPU-Sim PTX: 1500000 instructions simulated : ctaid=(4,0,0) tid=(58,0,0)
GPGPU-Sim uArch: cycles simulated: 5000  inst.: 1452665 (ipc=290.5) sim_rate=26901 (inst/sec) elapsed = 0:0:00:54 / Sun Feb  3 06:56:34 2019
GPGPU-Sim PTX: 1600000 instructions simulated : ctaid=(42,0,0) tid=(1,0,0)
GPGPU-Sim uArch: cycles simulated: 5500  inst.: 1632243 (ipc=296.8) sim_rate=27204 (inst/sec) elapsed = 0:0:01:00 / Sun Feb  3 06:56:40 2019
GPGPU-Sim PTX: 1700000 instructions simulated : ctaid=(72,0,0) tid=(16,0,0)
GPGPU-Sim PTX: 1800000 instructions simulated : ctaid=(29,0,0) tid=(247,0,0)
GPGPU-Sim uArch: cycles simulated: 6000  inst.: 1762861 (ipc=293.8) sim_rate=27120 (inst/sec) elapsed = 0:0:01:05 / Sun Feb  3 06:56:45 2019
GPGPU-Sim PTX: 1900000 instructions simulated : ctaid=(3,0,0) tid=(146,0,0)
GPGPU-Sim PTX: 2000000 instructions simulated : ctaid=(16,0,0) tid=(153,0,0)
GPGPU-Sim uArch: cycles simulated: 6500  inst.: 1993559 (ipc=306.7) sim_rate=27688 (inst/sec) elapsed = 0:0:01:12 / Sun Feb  3 06:56:52 2019
GPGPU-Sim PTX: 2100000 instructions simulated : ctaid=(87,0,0) tid=(151,0,0)
GPGPU-Sim PTX: 2200000 instructions simulated : ctaid=(37,0,0) tid=(54,0,0)
GPGPU-Sim uArch: cycles simulated: 7000  inst.: 2164737 (ipc=309.2) sim_rate=27753 (inst/sec) elapsed = 0:0:01:18 / Sun Feb  3 06:56:58 2019
GPGPU-Sim PTX: 2300000 instructions simulated : ctaid=(78,0,0) tid=(34,0,0)
GPGPU-Sim uArch: cycles simulated: 7500  inst.: 2272909 (ipc=303.1) sim_rate=27058 (inst/sec) elapsed = 0:0:01:24 / Sun Feb  3 06:57:04 2019
GPGPU-Sim PTX: 2400000 instructions simulated : ctaid=(86,0,0) tid=(206,0,0)
GPGPU-Sim uArch: cycles simulated: 8000  inst.: 2359674 (ipc=295.0) sim_rate=26218 (inst/sec) elapsed = 0:0:01:30 / Sun Feb  3 06:57:10 2019
GPGPU-Sim uArch: cycles simulated: 8500  inst.: 2402722 (ipc=282.7) sim_rate=25560 (inst/sec) elapsed = 0:0:01:34 / Sun Feb  3 06:57:14 2019
GPGPU-Sim uArch: Shader 14 finished CTA #4 (8579,0), 5 CTAs running
GPGPU-Sim uArch: core: 14, cta: 4 initialized @(8580,0)
GPGPU-Sim uArch: Shader 11 finished CTA #3 (8580,0), 5 CTAs running
GPGPU-Sim uArch: core: 11, cta: 3 initialized @(8581,0)
GPGPU-Sim uArch: Shader 0 finished CTA #5 (8581,0), 5 CTAs running
GPGPU-Sim uArch: core:  0, cta: 5 initialized @(8582,0)
GPGPU-Sim uArch: Shader 5 finished CTA #5 (8585,0), 5 CTAs running
GPGPU-Sim uArch: core:  5, cta: 5 initialized @(8586,0)
GPGPU-Sim uArch: Shader 0 finished CTA #4 (8591,0), 5 CTAs running
GPGPU-Sim uArch: core:  0, cta: 4 initialized @(8592,0)
GPGPU-Sim uArch: Shader 11 finished CTA #5 (8593,0), 5 CTAs running
GPGPU-Sim uArch: Shader 13 finished CTA #5 (8593,0), 5 CTAs running
GPGPU-Sim uArch: Shader 14 finished CTA #5 (8593,0), 5 CTAs running
GPGPU-Sim uArch: core: 11, cta: 5 initialized @(8594,0)
GPGPU-Sim uArch: core: 13, cta: 5 initialized @(8594,0)
GPGPU-Sim uArch: core: 14, cta: 5 initialized @(8594,0)
GPGPU-Sim uArch: Shader 5 finished CTA #4 (8594,0), 5 CTAs running
GPGPU-Sim uArch: core:  5, cta: 4 initialized @(8595,0)
GPGPU-Sim uArch: Shader 8 finished CTA #4 (8597,0), 5 CTAs running
GPGPU-Sim uArch: core:  8, cta: 4 initialized @(8598,0)
GPGPU-Sim uArch: Shader 13 finished CTA #4 (8602,0), 5 CTAs running
GPGPU-Sim uArch: core: 13, cta: 4 initialized @(8603,0)
GPGPU-Sim uArch: Shader 9 finished CTA #4 (8604,0), 5 CTAs running
GPGPU-Sim uArch: core:  9, cta: 4 initialized @(8605,0)
GPGPU-Sim uArch: Shader 8 finished CTA #5 (8606,0), 5 CTAs running
GPGPU-Sim uArch: Shader 13 finished CTA #2 (8606,0), 5 CTAs running
GPGPU-Sim uArch: core: 13, cta: 2 initialized @(8607,0)
GPGPU-Sim uArch: core:  8, cta: 5 initialized @(8607,0)
GPGPU-Sim uArch: Shader 11 finished CTA #4 (8607,0), 5 CTAs running
GPGPU-Sim uArch: core: 11, cta: 4 initialized @(8608,0)
GPGPU-Sim uArch: Shader 14 finished CTA #2 (8611,0), 5 CTAs running
GPGPU-Sim uArch: core: 14, cta: 2 initialized @(8612,0)
GPGPU-Sim uArch: Shader 0 finished CTA #1 (8616,0), 5 CTAs running
GPGPU-Sim PTX: 2500000 instructions simulated : ctaid=(91,0,0) tid=(128,0,0)
GPGPU-Sim uArch: core:  0, cta: 1 initialized @(8617,0)
GPGPU-Sim uArch: Shader 11 finished CTA #2 (8619,0), 5 CTAs running
GPGPU-Sim uArch: core: 11, cta: 2 initialized @(8620,0)
GPGPU-Sim uArch: Shader 7 finished CTA #5 (8624,0), 5 CTAs running
GPGPU-Sim uArch: core:  7, cta: 5 initialized @(8625,0)
GPGPU-Sim uArch: Shader 6 finished CTA #4 (8629,0), 5 CTAs running
GPGPU-Sim uArch: core:  6, cta: 4 initialized @(8630,0)
GPGPU-Sim uArch: Shader 9 finished CTA #1 (8639,0), 5 CTAs running
GPGPU-Sim uArch: core:  9, cta: 1 initialized @(8640,0)
GPGPU-Sim uArch: Shader 8 finished CTA #2 (8641,0), 5 CTAs running
GPGPU-Sim uArch: core:  8, cta: 2 initialized @(8642,0)
GPGPU-Sim uArch: Shader 7 finished CTA #4 (8644,0), 5 CTAs running
GPGPU-Sim uArch: core:  7, cta: 4 initialized @(8645,0)
GPGPU-Sim uArch: Shader 11 finished CTA #1 (8646,0), 5 CTAs running
GPGPU-Sim uArch: Shader 14 finished CTA #1 (8646,0), 5 CTAs running
GPGPU-Sim uArch: core: 11, cta: 1 initialized @(8647,0)
GPGPU-Sim uArch: core: 14, cta: 1 initialized @(8647,0)
GPGPU-Sim uArch: Shader 0 finished CTA #0 (8648,0), 5 CTAs running
GPGPU-Sim uArch: core:  0, cta: 0 initialized @(8649,0)
GPGPU-Sim uArch: Shader 6 finished CTA #1 (8649,0), 5 CTAs running
GPGPU-Sim uArch: core:  6, cta: 1 initialized @(8650,0)
GPGPU-Sim uArch: Shader 13 finished CTA #0 (8655,0), 5 CTAs running
GPGPU-Sim uArch: core: 13, cta: 0 initialized @(8656,0)
GPGPU-Sim uArch: Shader 14 finished CTA #0 (8656,0), 5 CTAs running
GPGPU-Sim uArch: core: 14, cta: 0 initialized @(8657,0)
GPGPU-Sim uArch: Shader 7 finished CTA #0 (8659,0), 5 CTAs running
GPGPU-Sim uArch: core:  7, cta: 0 initialized @(8660,0)
GPGPU-Sim uArch: Shader 8 finished CTA #0 (8661,0), 5 CTAs running
GPGPU-Sim uArch: core:  8, cta: 0 initialized @(8662,0)
GPGPU-Sim uArch: Shader 6 finished CTA #5 (8664,0), 5 CTAs running
GPGPU-Sim uArch: Shader 6 finished CTA #0 (8664,0), 4 CTAs running
GPGPU-Sim uArch: core:  6, cta: 0 initialized @(8665,0)
GPGPU-Sim uArch: core:  6, cta: 5 initialized @(8666,0)
GPGPU-Sim uArch: Shader 13 finished CTA #1 (8668,0), 5 CTAs running
GPGPU-Sim uArch: core: 13, cta: 1 initialized @(8669,0)
GPGPU-Sim uArch: Shader 9 finished CTA #0 (8669,0), 5 CTAs running
GPGPU-Sim uArch: core:  9, cta: 0 initialized @(8670,0)
GPGPU-Sim uArch: Shader 7 finished CTA #2 (8673,0), 5 CTAs running
GPGPU-Sim uArch: Shader 7 finished CTA #3 (8673,0), 4 CTAs running
GPGPU-Sim uArch: core:  7, cta: 2 initialized @(8674,0)
GPGPU-Sim uArch: core:  7, cta: 3 initialized @(8675,0)
GPGPU-Sim uArch: Shader 0 finished CTA #2 (8677,0), 5 CTAs running
GPGPU-Sim uArch: Shader 8 finished CTA #1 (8677,0), 5 CTAs running
GPGPU-Sim uArch: Shader 11 finished CTA #0 (8677,0), 5 CTAs running
GPGPU-Sim uArch: core:  8, cta: 1 initialized @(8678,0)
GPGPU-Sim uArch: core: 11, cta: 0 initialized @(8678,0)
GPGPU-Sim uArch: core:  0, cta: 2 initialized @(8678,0)
GPGPU-Sim uArch: Shader 1 finished CTA #1 (8683,0), 5 CTAs running
GPGPU-Sim uArch: core:  1, cta: 1 initialized @(8684,0)
GPGPU-Sim uArch: Shader 6 finished CTA #2 (8690,0), 5 CTAs running
GPGPU-Sim uArch: Shader 6 finished CTA #3 (8690,0), 4 CTAs running
GPGPU-Sim uArch: core:  6, cta: 2 initialized @(8691,0)
GPGPU-Sim uArch: Shader 5 finished CTA #0 (8691,0), 5 CTAs running
GPGPU-Sim uArch: core:  5, cta: 0 initialized @(8692,0)
GPGPU-Sim uArch: core:  6, cta: 3 initialized @(8692,0)
GPGPU-Sim uArch: Shader 1 finished CTA #3 (8692,0), 5 CTAs running
GPGPU-Sim uArch: Shader 1 finished CTA #0 (8692,0), 4 CTAs running
GPGPU-Sim uArch: core:  1, cta: 0 initialized @(8693,0)
GPGPU-Sim uArch: core:  1, cta: 3 initialized @(8694,0)
GPGPU-Sim uArch: Shader 13 finished CTA #3 (8701,0), 5 CTAs running
GPGPU-Sim uArch: core: 13, cta: 3 initialized @(8702,0)
GPGPU-Sim uArch: Shader 2 finished CTA #0 (8703,0), 5 CTAs running
GPGPU-Sim uArch: core:  2, cta: 0 initialized @(8704,0)
GPGPU-Sim uArch: Shader 5 finished CTA #1 (8704,0), 5 CTAs running
GPGPU-Sim uArch: core:  5, cta: 1 initialized @(8705,0)
GPGPU-Sim uArch: Shader 9 finished CTA #2 (8705,0), 5 CTAs running
GPGPU-Sim uArch: core:  9, cta: 2 initialized @(8706,0)
GPGPU-Sim uArch: Shader 10 finished CTA #1 (8709,0), 5 CTAs running
GPGPU-Sim uArch: core: 10, cta: 1 initialized @(8710,0)
GPGPU-Sim uArch: Shader 2 finished CTA #2 (8712,0), 5 CTAs running
GPGPU-Sim uArch: core:  2, cta: 2 initialized @(8713,0)
GPGPU-Sim uArch: Shader 7 finished CTA #1 (8713,0), 5 CTAs running
GPGPU-Sim uArch: core:  7, cta: 1 initialized @(8714,0)
GPGPU-Sim uArch: Shader 2 finished CTA #1 (8716,0), 5 CTAs running
GPGPU-Sim uArch: core:  2, cta: 1 initialized @(8717,0)
GPGPU-Sim uArch: Shader 1 finished CTA #2 (8717,0), 5 CTAs running
GPGPU-Sim uArch: core:  1, cta: 2 initialized @(8718,0)
GPGPU-Sim uArch: Shader 10 finished CTA #2 (8722,0), 5 CTAs running
GPGPU-Sim uArch: core: 10, cta: 2 initialized @(8723,0)
GPGPU-Sim uArch: Shader 10 finished CTA #3 (8732,0), 5 CTAs running
GPGPU-Sim uArch: core: 10, cta: 3 initialized @(8733,0)
GPGPU-Sim uArch: Shader 9 finished CTA #5 (8751,0), 5 CTAs running
GPGPU-Sim uArch: core:  9, cta: 5 initialized @(8752,0)
GPGPU-Sim uArch: Shader 10 finished CTA #4 (8758,0), 5 CTAs running
GPGPU-Sim uArch: core: 10, cta: 4 initialized @(8759,0)
GPGPU-Sim uArch: Shader 3 finished CTA #1 (8766,0), 5 CTAs running
GPGPU-Sim uArch: core:  3, cta: 1 initialized @(8767,0)
GPGPU-Sim uArch: Shader 10 finished CTA #5 (8772,0), 5 CTAs running
GPGPU-Sim uArch: core: 10, cta: 5 initialized @(8773,0)
GPGPU-Sim uArch: Shader 14 finished CTA #3 (8778,0), 5 CTAs running
GPGPU-Sim uArch: core: 14, cta: 3 initialized @(8779,0)
GPGPU-Sim uArch: Shader 3 finished CTA #2 (8779,0), 5 CTAs running
GPGPU-Sim uArch: core:  3, cta: 2 initialized @(8780,0)
GPGPU-Sim uArch: Shader 0 finished CTA #3 (8781,0), 5 CTAs running
GPGPU-Sim uArch: core:  0, cta: 3 initialized @(8782,0)
GPGPU-Sim uArch: Shader 12 finished CTA #2 (8782,0), 5 CTAs running
GPGPU-Sim uArch: core: 12, cta: 2 initialized @(8783,0)
GPGPU-Sim uArch: Shader 8 finished CTA #3 (8783,0), 5 CTAs running
GPGPU-Sim uArch: core:  8, cta: 3 initialized @(8784,0)
GPGPU-Sim PTX: 2600000 instructions simulated : ctaid=(130,0,0) tid=(236,0,0)
GPGPU-Sim uArch: Shader 3 finished CTA #3 (8794,0), 5 CTAs running
GPGPU-Sim uArch: Shader 3 finished CTA #4 (8794,0), 4 CTAs running
GPGPU-Sim uArch: core:  3, cta: 3 initialized @(8795,0)
GPGPU-Sim uArch: core:  3, cta: 4 initialized @(8796,0)
GPGPU-Sim uArch: Shader 10 finished CTA #0 (8803,0), 5 CTAs running
GPGPU-Sim uArch: core: 10, cta: 0 initialized @(8804,0)
GPGPU-Sim uArch: Shader 12 finished CTA #4 (8815,0), 5 CTAs running
GPGPU-Sim uArch: core: 12, cta: 4 initialized @(8816,0)
GPGPU-Sim uArch: Shader 4 finished CTA #3 (8822,0), 5 CTAs running
GPGPU-Sim uArch: core:  4, cta: 3 initialized @(8823,0)
GPGPU-Sim uArch: Shader 4 finished CTA #4 (8831,0), 5 CTAs running
GPGPU-Sim uArch: core:  4, cta: 4 initialized @(8832,0)
GPGPU-Sim uArch: Shader 9 finished CTA #3 (8834,0), 5 CTAs running
GPGPU-Sim uArch: core:  9, cta: 3 initialized @(8835,0)
GPGPU-Sim uArch: Shader 4 finished CTA #0 (8843,0), 5 CTAs running
GPGPU-Sim uArch: Shader 4 finished CTA #1 (8843,0), 4 CTAs running
GPGPU-Sim uArch: core:  4, cta: 0 initialized @(8844,0)
GPGPU-Sim uArch: core:  4, cta: 1 initialized @(8845,0)
GPGPU-Sim uArch: Shader 12 finished CTA #3 (8856,0), 5 CTAs running
GPGPU-Sim uArch: core: 12, cta: 3 initialized @(8857,0)
GPGPU-Sim PTX: 2700000 instructions simulated : ctaid=(112,0,0) tid=(161,0,0)
GPGPU-Sim uArch: Shader 12 finished CTA #0 (8915,0), 5 CTAs running
GPGPU-Sim uArch: core: 12, cta: 0 initialized @(8916,0)
GPGPU-Sim uArch: Shader 2 finished CTA #3 (8920,0), 5 CTAs running
GPGPU-Sim uArch: core:  2, cta: 3 initialized @(8921,0)
GPGPU-Sim uArch: Shader 1 finished CTA #4 (8927,0), 5 CTAs running
GPGPU-Sim uArch: core:  1, cta: 4 initialized @(8928,0)
GPGPU-Sim uArch: Shader 12 finished CTA #5 (8950,0), 5 CTAs running
GPGPU-Sim uArch: core: 12, cta: 5 initialized @(8951,0)
GPGPU-Sim uArch: Shader 5 finished CTA #2 (8966,0), 5 CTAs running
GPGPU-Sim uArch: core:  5, cta: 2 initialized @(8967,0)
GPGPU-Sim uArch: Shader 5 finished CTA #3 (8975,0), 5 CTAs running
GPGPU-Sim uArch: core:  5, cta: 3 initialized @(8976,0)
GPGPU-Sim uArch: Shader 4 finished CTA #2 (8984,0), 5 CTAs running
GPGPU-Sim uArch: core:  4, cta: 2 initialized @(8985,0)
GPGPU-Sim uArch: Shader 2 finished CTA #4 (8996,0), 5 CTAs running
GPGPU-Sim uArch: core:  2, cta: 4 initialized @(8997,0)
GPGPU-Sim uArch: cycles simulated: 9000  inst.: 2669486 (ipc=296.6) sim_rate=26171 (inst/sec) elapsed = 0:0:01:42 / Sun Feb  3 06:57:22 2019
GPGPU-Sim uArch: Shader 12 finished CTA #1 (9025,0), 5 CTAs running
GPGPU-Sim uArch: core: 12, cta: 1 initialized @(9026,0)
GPGPU-Sim PTX: 2800000 instructions simulated : ctaid=(115,0,0) tid=(60,0,0)
GPGPU-Sim uArch: Shader 3 finished CTA #0 (9073,0), 5 CTAs running
GPGPU-Sim uArch: core:  3, cta: 0 initialized @(9074,0)
GPGPU-Sim PTX: 2900000 instructions simulated : ctaid=(138,0,0) tid=(48,0,0)
GPGPU-Sim uArch: Shader 1 finished CTA #5 (9325,0), 5 CTAs running
GPGPU-Sim uArch: core:  1, cta: 5 initialized @(9326,0)
GPGPU-Sim uArch: Shader 4 finished CTA #5 (9455,0), 5 CTAs running
GPGPU-Sim uArch: core:  4, cta: 5 initialized @(9456,0)
GPGPU-Sim uArch: cycles simulated: 9500  inst.: 2845236 (ipc=299.5) sim_rate=26344 (inst/sec) elapsed = 0:0:01:48 / Sun Feb  3 06:57:28 2019
GPGPU-Sim uArch: Shader 2 finished CTA #5 (9596,0), 5 CTAs running
GPGPU-Sim uArch: core:  2, cta: 5 initialized @(9597,0)
GPGPU-Sim PTX: 3000000 instructions simulated : ctaid=(99,0,0) tid=(22,0,0)
GPGPU-Sim uArch: Shader 3 finished CTA #5 (9943,0), 5 CTAs running
GPGPU-Sim uArch: core:  3, cta: 5 initialized @(9944,0)
GPGPU-Sim uArch: cycles simulated: 10000  inst.: 2943882 (ipc=294.4) sim_rate=25823 (inst/sec) elapsed = 0:0:01:54 / Sun Feb  3 06:57:34 2019
GPGPU-Sim PTX: 3100000 instructions simulated : ctaid=(101,0,0) tid=(97,0,0)
GPGPU-Sim PTX: 3200000 instructions simulated : ctaid=(143,0,0) tid=(255,0,0)
GPGPU-Sim PTX: 3300000 instructions simulated : ctaid=(157,0,0) tid=(122,0,0)
GPGPU-Sim PTX: 3400000 instructions simulated : ctaid=(176,0,0) tid=(14,0,0)
GPGPU-Sim uArch: cycles simulated: 10500  inst.: 3285453 (ipc=312.9) sim_rate=28080 (inst/sec) elapsed = 0:0:01:57 / Sun Feb  3 06:57:37 2019
GPGPU-Sim PTX: 3500000 instructions simulated : ctaid=(105,0,0) tid=(136,0,0)
GPGPU-Sim PTX: 3600000 instructions simulated : ctaid=(119,0,0) tid=(38,0,0)
GPGPU-Sim uArch: cycles simulated: 11000  inst.: 3565257 (ipc=324.1) sim_rate=29960 (inst/sec) elapsed = 0:0:01:59 / Sun Feb  3 06:57:39 2019
GPGPU-Sim PTX: 3700000 instructions simulated : ctaid=(121,0,0) tid=(255,0,0)
GPGPU-Sim PTX: 3800000 instructions simulated : ctaid=(116,0,0) tid=(227,0,0)
GPGPU-Sim PTX: 3900000 instructions simulated : ctaid=(160,0,0) tid=(125,0,0)
GPGPU-Sim uArch: cycles simulated: 11500  inst.: 3806808 (ipc=331.0) sim_rate=31723 (inst/sec) elapsed = 0:0:02:00 / Sun Feb  3 06:57:40 2019
GPGPU-Sim PTX: 4000000 instructions simulated : ctaid=(147,0,0) tid=(24,0,0)
GPGPU-Sim PTX: 4100000 instructions simulated : ctaid=(129,0,0) tid=(76,0,0)
GPGPU-Sim uArch: cycles simulated: 12000  inst.: 3991911 (ipc=332.7) sim_rate=32991 (inst/sec) elapsed = 0:0:02:01 / Sun Feb  3 06:57:41 2019
GPGPU-Sim PTX: 4200000 instructions simulated : ctaid=(152,0,0) tid=(7,0,0)
GPGPU-Sim PTX: 4300000 instructions simulated : ctaid=(96,0,0) tid=(250,0,0)
GPGPU-Sim uArch: cycles simulated: 12500  inst.: 4168265 (ipc=333.5) sim_rate=33888 (inst/sec) elapsed = 0:0:02:03 / Sun Feb  3 06:57:43 2019
GPGPU-Sim PTX: 4400000 instructions simulated : ctaid=(129,0,0) tid=(201,0,0)
GPGPU-Sim PTX: 4500000 instructions simulated : ctaid=(133,0,0) tid=(215,0,0)
GPGPU-Sim uArch: cycles simulated: 13000  inst.: 4351133 (ipc=334.7) sim_rate=35089 (inst/sec) elapsed = 0:0:02:04 / Sun Feb  3 06:57:44 2019
GPGPU-Sim PTX: 4600000 instructions simulated : ctaid=(157,0,0) tid=(221,0,0)
GPGPU-Sim uArch: cycles simulated: 13500  inst.: 4490669 (ipc=332.6) sim_rate=35640 (inst/sec) elapsed = 0:0:02:06 / Sun Feb  3 06:57:46 2019
GPGPU-Sim uArch: Shader 0 finished CTA #4 (13642,0), 5 CTAs running
GPGPU-Sim uArch: core:  0, cta: 4 initialized @(13643,0)
GPGPU-Sim uArch: Shader 0 finished CTA #5 (13651,0), 5 CTAs running
GPGPU-Sim uArch: core:  0, cta: 5 initialized @(13652,0)
GPGPU-Sim PTX: 4700000 instructions simulated : ctaid=(164,0,0) tid=(18,0,0)
GPGPU-Sim uArch: Shader 3 finished CTA #1 (13889,0), 5 CTAs running
GPGPU-Sim uArch: core:  3, cta: 1 initialized @(13890,0)
GPGPU-Sim uArch: Shader 1 finished CTA #1 (13979,0), 5 CTAs running
GPGPU-Sim uArch: core:  1, cta: 1 initialized @(13980,0)
GPGPU-Sim uArch: Shader 10 finished CTA #2 (13983,0), 5 CTAs running
GPGPU-Sim uArch: core: 10, cta: 2 initialized @(13984,0)
GPGPU-Sim uArch: Shader 1 finished CTA #0 (13988,0), 5 CTAs running
GPGPU-Sim uArch: core:  1, cta: 0 initialized @(13989,0)
GPGPU-Sim uArch: cycles simulated: 14000  inst.: 4631818 (ipc=330.8) sim_rate=36471 (inst/sec) elapsed = 0:0:02:07 / Sun Feb  3 06:57:47 2019
GPGPU-Sim PTX: 4800000 instructions simulated : ctaid=(163,0,0) tid=(130,0,0)
GPGPU-Sim uArch: Shader 7 finished CTA #4 (14169,0), 5 CTAs running
GPGPU-Sim uArch: core:  7, cta: 4 initialized @(14170,0)
GPGPU-Sim uArch: Shader 7 finished CTA #0 (14191,0), 5 CTAs running
GPGPU-Sim uArch: core:  7, cta: 0 initialized @(14192,0)
GPGPU-Sim uArch: Shader 8 finished CTA #5 (14194,0), 5 CTAs running
GPGPU-Sim uArch: core:  8, cta: 5 initialized @(14195,0)
GPGPU-Sim uArch: Shader 8 finished CTA #4 (14203,0), 5 CTAs running
GPGPU-Sim uArch: core:  8, cta: 4 initialized @(14204,0)
GPGPU-Sim uArch: Shader 6 finished CTA #0 (14339,0), 5 CTAs running
GPGPU-Sim uArch: core:  6, cta: 0 initialized @(14340,0)
GPGPU-Sim uArch: Shader 6 finished CTA #1 (14348,0), 5 CTAs running
GPGPU-Sim uArch: core:  6, cta: 1 initialized @(14349,0)
GPGPU-Sim PTX: 4900000 instructions simulated : ctaid=(184,0,0) tid=(20,0,0)
GPGPU-Sim uArch: Shader 5 finished CTA #5 (14417,0), 5 CTAs running
GPGPU-Sim uArch: core:  5, cta: 5 initialized @(14418,0)
GPGPU-Sim uArch: Shader 11 finished CTA #3 (14443,0), 5 CTAs running
GPGPU-Sim uArch: core: 11, cta: 3 initialized @(14444,0)
GPGPU-Sim uArch: Shader 11 finished CTA #5 (14452,0), 5 CTAs running
GPGPU-Sim uArch: core: 11, cta: 5 initialized @(14453,0)
GPGPU-Sim uArch: Shader 13 finished CTA #5 (14483,0), 5 CTAs running
GPGPU-Sim uArch: core: 13, cta: 5 initialized @(14484,0)
GPGPU-Sim uArch: Shader 13 finished CTA #4 (14499,0), 5 CTAs running
GPGPU-Sim uArch: core: 13, cta: 4 initialized @(14500,0)
GPGPU-Sim uArch: cycles simulated: 14500  inst.: 4780413 (ipc=329.7) sim_rate=37346 (inst/sec) elapsed = 0:0:02:08 / Sun Feb  3 06:57:48 2019
GPGPU-Sim uArch: Shader 2 finished CTA #0 (14521,0), 5 CTAs running
GPGPU-Sim uArch: core:  2, cta: 0 initialized @(14522,0)
GPGPU-Sim uArch: Shader 6 finished CTA #4 (14527,0), 5 CTAs running
GPGPU-Sim uArch: core:  6, cta: 4 initialized @(14528,0)
GPGPU-Sim uArch: Shader 2 finished CTA #1 (14530,0), 5 CTAs running
GPGPU-Sim uArch: Shader 2 finished CTA #2 (14530,0), 4 CTAs running
GPGPU-Sim uArch: core:  2, cta: 1 initialized @(14531,0)
GPGPU-Sim uArch: core:  2, cta: 2 initialized @(14532,0)
GPGPU-Sim uArch: Shader 14 finished CTA #4 (14547,0), 5 CTAs running
GPGPU-Sim uArch: core: 14, cta: 4 initialized @(14548,0)
GPGPU-Sim uArch: Shader 4 finished CTA #3 (14550,0), 5 CTAs running
GPGPU-Sim uArch: core:  4, cta: 3 initialized @(14551,0)
GPGPU-Sim uArch: Shader 12 finished CTA #2 (14554,0), 5 CTAs running
GPGPU-Sim uArch: core: 12, cta: 2 initialized @(14555,0)
GPGPU-Sim uArch: Shader 4 finished CTA #4 (14559,0), 5 CTAs running
GPGPU-Sim uArch: core:  4, cta: 4 initialized @(14560,0)
GPGPU-Sim uArch: Shader 10 finished CTA #1 (14563,0), 5 CTAs running
GPGPU-Sim uArch: core: 10, cta: 1 initialized @(14564,0)
GPGPU-Sim PTX: 5000000 instructions simulated : ctaid=(203,0,0) tid=(104,0,0)
GPGPU-Sim uArch: Shader 10 finished CTA #3 (14602,0), 5 CTAs running
GPGPU-Sim uArch: core: 10, cta: 3 initialized @(14603,0)
GPGPU-Sim uArch: Shader 3 finished CTA #2 (14670,0), 5 CTAs running
GPGPU-Sim uArch: core:  3, cta: 2 initialized @(14671,0)
GPGPU-Sim uArch: Shader 14 finished CTA #5 (14712,0), 5 CTAs running
GPGPU-Sim uArch: core: 14, cta: 5 initialized @(14713,0)
GPGPU-Sim uArch: Shader 11 finished CTA #4 (14717,0), 5 CTAs running
GPGPU-Sim uArch: core: 11, cta: 4 initialized @(14718,0)
GPGPU-Sim uArch: Shader 14 finished CTA #2 (14721,0), 5 CTAs running
GPGPU-Sim uArch: core: 14, cta: 2 initialized @(14722,0)
GPGPU-Sim uArch: Shader 10 finished CTA #4 (14730,0), 5 CTAs running
GPGPU-Sim uArch: core: 10, cta: 4 initialized @(14731,0)
GPGPU-Sim uArch: Shader 5 finished CTA #0 (14736,0), 5 CTAs running
GPGPU-Sim uArch: core:  5, cta: 0 initialized @(14737,0)
GPGPU-Sim uArch: Shader 5 finished CTA #1 (14745,0), 5 CTAs running
GPGPU-Sim uArch: core:  5, cta: 1 initialized @(14746,0)
GPGPU-Sim PTX: 5100000 instructions simulated : ctaid=(182,0,0) tid=(249,0,0)
GPGPU-Sim uArch: Shader 5 finished CTA #4 (14787,0), 5 CTAs running
GPGPU-Sim uArch: core:  5, cta: 4 initialized @(14788,0)
GPGPU-Sim uArch: Shader 12 finished CTA #5 (14798,0), 5 CTAs running
GPGPU-Sim uArch: core: 12, cta: 5 initialized @(14799,0)
GPGPU-Sim uArch: Shader 12 finished CTA #3 (14807,0), 5 CTAs running
GPGPU-Sim uArch: Shader 12 finished CTA #4 (14807,0), 4 CTAs running
GPGPU-Sim uArch: core: 12, cta: 3 initialized @(14808,0)
GPGPU-Sim uArch: core: 12, cta: 4 initialized @(14809,0)
GPGPU-Sim uArch: Shader 5 finished CTA #2 (14935,0), 5 CTAs running
GPGPU-Sim uArch: core:  5, cta: 2 initialized @(14936,0)
GPGPU-Sim uArch: Shader 10 finished CTA #5 (14936,0), 5 CTAs running
GPGPU-Sim uArch: core: 10, cta: 5 initialized @(14937,0)
GPGPU-Sim PTX: 5200000 instructions simulated : ctaid=(190,0,0) tid=(12,0,0)
GPGPU-Sim uArch: Shader 12 finished CTA #0 (14944,0), 5 CTAs running
GPGPU-Sim uArch: core: 12, cta: 0 initialized @(14945,0)
GPGPU-Sim uArch: Shader 8 finished CTA #0 (14964,0), 5 CTAs running
GPGPU-Sim uArch: core:  8, cta: 0 initialized @(14965,0)
GPGPU-Sim uArch: Shader 11 finished CTA #2 (14968,0), 5 CTAs running
GPGPU-Sim uArch: core: 11, cta: 2 initialized @(14969,0)
GPGPU-Sim uArch: Shader 5 finished CTA #3 (14980,0), 5 CTAs running
GPGPU-Sim uArch: core:  5, cta: 3 initialized @(14981,0)
GPGPU-Sim uArch: Shader 8 finished CTA #1 (14993,0), 5 CTAs running
GPGPU-Sim uArch: core:  8, cta: 1 initialized @(14994,0)
GPGPU-Sim uArch: cycles simulated: 15000  inst.: 5036354 (ipc=335.8) sim_rate=38741 (inst/sec) elapsed = 0:0:02:10 / Sun Feb  3 06:57:50 2019
GPGPU-Sim uArch: Shader 9 finished CTA #4 (15001,0), 5 CTAs running
GPGPU-Sim uArch: core:  9, cta: 4 initialized @(15002,0)
GPGPU-Sim uArch: Shader 9 finished CTA #1 (15028,0), 5 CTAs running
GPGPU-Sim uArch: core:  9, cta: 1 initialized @(15029,0)
GPGPU-Sim uArch: Shader 3 finished CTA #3 (15049,0), 5 CTAs running
GPGPU-Sim uArch: core:  3, cta: 3 initialized @(15050,0)
GPGPU-Sim uArch: Shader 9 finished CTA #0 (15059,0), 5 CTAs running
GPGPU-Sim uArch: core:  9, cta: 0 initialized @(15060,0)
GPGPU-Sim uArch: Shader 14 finished CTA #0 (15176,0), 5 CTAs running
GPGPU-Sim uArch: Shader 14 finished CTA #1 (15176,0), 4 CTAs running
GPGPU-Sim uArch: core: 14, cta: 0 initialized @(15177,0)
GPGPU-Sim uArch: core: 14, cta: 1 initialized @(15178,0)
GPGPU-Sim PTX: 5300000 instructions simulated : ctaid=(208,0,0) tid=(82,0,0)
GPGPU-Sim uArch: Shader 3 finished CTA #4 (15232,0), 5 CTAs running
GPGPU-Sim uArch: core:  3, cta: 4 initialized @(15233,0)
GPGPU-Sim uArch: Shader 0 finished CTA #2 (15400,0), 5 CTAs running
GPGPU-Sim uArch: core:  0, cta: 2 initialized @(15401,0)
GPGPU-Sim uArch: Shader 7 finished CTA #3 (15442,0), 5 CTAs running
GPGPU-Sim uArch: core:  7, cta: 3 initialized @(15443,0)
GPGPU-Sim uArch: Shader 7 finished CTA #5 (15451,0), 5 CTAs running
GPGPU-Sim uArch: core:  7, cta: 5 initialized @(15452,0)
GPGPU-Sim PTX: 5400000 instructions simulated : ctaid=(231,0,0) tid=(108,0,0)
GPGPU-Sim uArch: Shader 0 finished CTA #0 (15482,0), 5 CTAs running
GPGPU-Sim uArch: Shader 0 finished CTA #1 (15482,0), 4 CTAs running
GPGPU-Sim uArch: core:  0, cta: 0 initialized @(15483,0)
GPGPU-Sim uArch: core:  0, cta: 1 initialized @(15484,0)
GPGPU-Sim uArch: Shader 7 finished CTA #2 (15488,0), 5 CTAs running
GPGPU-Sim uArch: core:  7, cta: 2 initialized @(15489,0)
GPGPU-Sim uArch: cycles simulated: 15500  inst.: 5214386 (ipc=336.4) sim_rate=39502 (inst/sec) elapsed = 0:0:02:12 / Sun Feb  3 06:57:52 2019
GPGPU-Sim uArch: Shader 13 finished CTA #2 (15635,0), 5 CTAs running
GPGPU-Sim uArch: core: 13, cta: 2 initialized @(15636,0)
GPGPU-Sim uArch: Shader 4 finished CTA #1 (15677,0), 5 CTAs running
GPGPU-Sim uArch: core:  4, cta: 1 initialized @(15678,0)
GPGPU-Sim uArch: Shader 6 finished CTA #2 (15690,0), 5 CTAs running
GPGPU-Sim uArch: core:  6, cta: 2 initialized @(15691,0)
GPGPU-Sim uArch: Shader 4 finished CTA #0 (15693,0), 5 CTAs running
GPGPU-Sim uArch: core:  4, cta: 0 initialized @(15694,0)
GPGPU-Sim uArch: Shader 6 finished CTA #3 (15751,0), 5 CTAs running
GPGPU-Sim uArch: core:  6, cta: 3 initialized @(15752,0)
GPGPU-Sim PTX: 5500000 instructions simulated : ctaid=(202,0,0) tid=(78,0,0)
GPGPU-Sim uArch: Shader 8 finished CTA #2 (15816,0), 5 CTAs running
GPGPU-Sim uArch: core:  8, cta: 2 initialized @(15817,0)
GPGPU-Sim uArch: Shader 6 finished CTA #5 (15831,0), 5 CTAs running
GPGPU-Sim uArch: core:  6, cta: 5 initialized @(15832,0)
GPGPU-Sim uArch: Shader 1 finished CTA #3 (15907,0), 5 CTAs running
GPGPU-Sim uArch: core:  1, cta: 3 initialized @(15908,0)
GPGPU-Sim uArch: Shader 13 finished CTA #0 (15924,0), 5 CTAs running
GPGPU-Sim uArch: core: 13, cta: 0 initialized @(15925,0)
GPGPU-Sim uArch: Shader 1 finished CTA #4 (15935,0), 5 CTAs running
GPGPU-Sim uArch: core:  1, cta: 4 initialized @(15936,0)
GPGPU-Sim uArch: Shader 13 finished CTA #1 (15938,0), 5 CTAs running
GPGPU-Sim uArch: core: 13, cta: 1 initialized @(15939,0)
GPGPU-Sim uArch: Shader 11 finished CTA #1 (15939,0), 5 CTAs running
GPGPU-Sim uArch: core: 11, cta: 1 initialized @(15940,0)
GPGPU-Sim uArch: Shader 1 finished CTA #2 (15971,0), 5 CTAs running
GPGPU-Sim uArch: core:  1, cta: 2 initialized @(15972,0)
GPGPU-Sim PTX: 5600000 instructions simulated : ctaid=(219,0,0) tid=(145,0,0)
GPGPU-Sim uArch: Shader 9 finished CTA #5 (15999,0), 5 CTAs running
GPGPU-Sim uArch: core:  9, cta: 5 initialized @(16000,0)
GPGPU-Sim uArch: cycles simulated: 16000  inst.: 5418059 (ipc=338.6) sim_rate=40737 (inst/sec) elapsed = 0:0:02:13 / Sun Feb  3 06:57:53 2019
GPGPU-Sim uArch: Shader 1 finished CTA #5 (16005,0), 5 CTAs running
GPGPU-Sim uArch: core:  1, cta: 5 initialized @(16006,0)
GPGPU-Sim uArch: Shader 9 finished CTA #2 (16008,0), 5 CTAs running
GPGPU-Sim uArch: core:  9, cta: 2 initialized @(16009,0)
GPGPU-Sim uArch: Shader 3 finished CTA #5 (16009,0), 5 CTAs running
GPGPU-Sim uArch: core:  3, cta: 5 initialized @(16010,0)
GPGPU-Sim PTX: 5700000 instructions simulated : ctaid=(242,0,0) tid=(227,0,0)
GPGPU-Sim uArch: Shader 2 finished CTA #3 (16146,0), 5 CTAs running
GPGPU-Sim uArch: core:  2, cta: 3 initialized @(16147,0)
GPGPU-Sim uArch: Shader 2 finished CTA #4 (16155,0), 5 CTAs running
GPGPU-Sim uArch: core:  2, cta: 4 initialized @(16156,0)
GPGPU-Sim uArch: Shader 3 finished CTA #0 (16274,0), 5 CTAs running
GPGPU-Sim uArch: core:  3, cta: 0 initialized @(16275,0)
GPGPU-Sim PTX: 5800000 instructions simulated : ctaid=(187,0,0) tid=(101,0,0)
GPGPU-Sim uArch: Shader 0 finished CTA #3 (16424,0), 5 CTAs running
GPGPU-Sim uArch: core:  0, cta: 3 initialized @(16425,0)
GPGPU-Sim uArch: Shader 4 finished CTA #2 (16491,0), 5 CTAs running
GPGPU-Sim uArch: core:  4, cta: 2 initialized @(16492,0)
GPGPU-Sim uArch: cycles simulated: 16500  inst.: 5665719 (ipc=343.4) sim_rate=41968 (inst/sec) elapsed = 0:0:02:15 / Sun Feb  3 06:57:55 2019
GPGPU-Sim PTX: 5900000 instructions simulated : ctaid=(256,0,0) tid=(111,0,0)
GPGPU-Sim PTX: 6000000 instructions simulated : ctaid=(223,0,0) tid=(56,0,0)
GPGPU-Sim uArch: Shader 7 finished CTA #1 (16732,0), 5 CTAs running
GPGPU-Sim uArch: core:  7, cta: 1 initialized @(16733,0)
GPGPU-Sim uArch: Shader 8 finished CTA #3 (16743,0), 5 CTAs running
GPGPU-Sim uArch: core:  8, cta: 3 initialized @(16744,0)
GPGPU-Sim uArch: Shader 9 finished CTA #3 (16799,0), 5 CTAs running
GPGPU-Sim uArch: core:  9, cta: 3 initialized @(16800,0)
GPGPU-Sim uArch: Shader 13 finished CTA #3 (16813,0), 5 CTAs running
GPGPU-Sim uArch: core: 13, cta: 3 initialized @(16814,0)
GPGPU-Sim uArch: Shader 10 finished CTA #0 (16856,0), 5 CTAs running
GPGPU-Sim uArch: core: 10, cta: 0 initialized @(16857,0)
GPGPU-Sim PTX: 6100000 instructions simulated : ctaid=(187,0,0) tid=(188,0,0)
GPGPU-Sim uArch: Shader 4 finished CTA #5 (16973,0), 5 CTAs running
GPGPU-Sim uArch: core:  4, cta: 5 initialized @(16974,0)
GPGPU-Sim uArch: cycles simulated: 17000  inst.: 5926412 (ipc=348.6) sim_rate=43258 (inst/sec) elapsed = 0:0:02:17 / Sun Feb  3 06:57:57 2019
GPGPU-Sim uArch: Shader 11 finished CTA #0 (17025,0), 5 CTAs running
GPGPU-Sim uArch: core: 11, cta: 0 initialized @(17026,0)
GPGPU-Sim uArch: Shader 12 finished CTA #1 (17118,0), 5 CTAs running
GPGPU-Sim uArch: core: 12, cta: 1 initialized @(17119,0)
GPGPU-Sim PTX: 6200000 instructions simulated : ctaid=(181,0,0) tid=(37,0,0)
GPGPU-Sim uArch: Shader 2 finished CTA #5 (17263,0), 5 CTAs running
GPGPU-Sim uArch: core:  2, cta: 5 initialized @(17264,0)
GPGPU-Sim PTX: 6300000 instructions simulated : ctaid=(267,0,0) tid=(165,0,0)
GPGPU-Sim PTX: 6400000 instructions simulated : ctaid=(250,0,0) tid=(46,0,0)
GPGPU-Sim uArch: cycles simulated: 17500  inst.: 6182161 (ipc=353.3) sim_rate=44798 (inst/sec) elapsed = 0:0:02:18 / Sun Feb  3 06:57:58 2019
GPGPU-Sim PTX: 6500000 instructions simulated : ctaid=(222,0,0) tid=(203,0,0)
GPGPU-Sim uArch: Shader 14 finished CTA #3 (17817,0), 5 CTAs running
GPGPU-Sim uArch: core: 14, cta: 3 initialized @(17818,0)
GPGPU-Sim uArch: cycles simulated: 18000  inst.: 6373517 (ipc=354.1) sim_rate=45525 (inst/sec) elapsed = 0:0:02:20 / Sun Feb  3 06:58:00 2019
GPGPU-Sim PTX: 6600000 instructions simulated : ctaid=(255,0,0) tid=(18,0,0)
GPGPU-Sim PTX: 6700000 instructions simulated : ctaid=(227,0,0) tid=(75,0,0)
GPGPU-Sim uArch: cycles simulated: 18500  inst.: 6561336 (ipc=354.7) sim_rate=46534 (inst/sec) elapsed = 0:0:02:21 / Sun Feb  3 06:58:01 2019
GPGPU-Sim PTX: 6800000 instructions simulated : ctaid=(239,0,0) tid=(20,0,0)
GPGPU-Sim PTX: 6900000 instructions simulated : ctaid=(197,0,0) tid=(50,0,0)
GPGPU-Sim uArch: cycles simulated: 19000  inst.: 6735095 (ipc=354.5) sim_rate=47098 (inst/sec) elapsed = 0:0:02:23 / Sun Feb  3 06:58:03 2019
GPGPU-Sim PTX: 7000000 instructions simulated : ctaid=(261,0,0) tid=(115,0,0)
GPGPU-Sim uArch: Shader 1 finished CTA #1 (19134,0), 5 CTAs running
GPGPU-Sim uArch: core:  1, cta: 1 initialized @(19135,0)
GPGPU-Sim uArch: Shader 1 finished CTA #0 (19162,0), 5 CTAs running
GPGPU-Sim uArch: core:  1, cta: 0 initialized @(19163,0)
GPGPU-Sim uArch: Shader 7 finished CTA #0 (19212,0), 5 CTAs running
GPGPU-Sim uArch: core:  7, cta: 0 initialized @(19213,0)
GPGPU-Sim uArch: Shader 7 finished CTA #4 (19227,0), 5 CTAs running
GPGPU-Sim uArch: core:  7, cta: 4 initialized @(19228,0)
GPGPU-Sim uArch: Shader 3 finished CTA #1 (19231,0), 5 CTAs running
GPGPU-Sim uArch: core:  3, cta: 1 initialized @(19232,0)
GPGPU-Sim PTX: 7100000 instructions simulated : ctaid=(215,0,0) tid=(128,0,0)
GPGPU-Sim uArch: Shader 0 finished CTA #4 (19405,0), 5 CTAs running
GPGPU-Sim uArch: core:  0, cta: 4 initialized @(19406,0)
GPGPU-Sim uArch: Shader 0 finished CTA #5 (19414,0), 5 CTAs running
GPGPU-Sim uArch: core:  0, cta: 5 initialized @(19415,0)
GPGPU-Sim uArch: Shader 8 finished CTA #5 (19415,0), 5 CTAs running
GPGPU-Sim uArch: core:  8, cta: 5 initialized @(19416,0)
GPGPU-Sim uArch: Shader 8 finished CTA #4 (19435,0), 5 CTAs running
GPGPU-Sim uArch: core:  8, cta: 4 initialized @(19436,0)
GPGPU-Sim uArch: Shader 6 finished CTA #1 (19439,0), 5 CTAs running
GPGPU-Sim uArch: core:  6, cta: 1 initialized @(19440,0)
GPGPU-Sim uArch: Shader 6 finished CTA #0 (19454,0), 5 CTAs running
GPGPU-Sim uArch: core:  6, cta: 0 initialized @(19455,0)
GPGPU-Sim uArch: cycles simulated: 19500  inst.: 6904582 (ipc=354.1) sim_rate=47948 (inst/sec) elapsed = 0:0:02:24 / Sun Feb  3 06:58:04 2019
GPGPU-Sim PTX: 7200000 instructions simulated : ctaid=(240,0,0) tid=(130,0,0)
GPGPU-Sim uArch: Shader 2 finished CTA #0 (19796,0), 5 CTAs running
GPGPU-Sim uArch: core:  2, cta: 0 initialized @(19797,0)
GPGPU-Sim PTX: 7300000 instructions simulated : ctaid=(254,0,0) tid=(234,0,0)
GPGPU-Sim uArch: Shader 12 finished CTA #5 (19866,0), 5 CTAs running
GPGPU-Sim uArch: core: 12, cta: 5 initialized @(19867,0)
GPGPU-Sim uArch: Shader 2 finished CTA #1 (19871,0), 5 CTAs running
GPGPU-Sim uArch: core:  2, cta: 1 initialized @(19872,0)
GPGPU-Sim uArch: Shader 12 finished CTA #3 (19880,0), 5 CTAs running
GPGPU-Sim uArch: core: 12, cta: 3 initialized @(19881,0)
GPGPU-Sim uArch: Shader 5 finished CTA #1 (19948,0), 5 CTAs running
GPGPU-Sim uArch: core:  5, cta: 1 initialized @(19949,0)
GPGPU-Sim uArch: Shader 5 finished CTA #0 (19957,0), 5 CTAs running
GPGPU-Sim uArch: core:  5, cta: 0 initialized @(19958,0)
GPGPU-Sim uArch: cycles simulated: 20000  inst.: 7087896 (ipc=354.4) sim_rate=48547 (inst/sec) elapsed = 0:0:02:26 / Sun Feb  3 06:58:06 2019
GPGPU-Sim uArch: Shader 10 finished CTA #2 (20156,0), 5 CTAs running
GPGPU-Sim uArch: core: 10, cta: 2 initialized @(20157,0)
GPGPU-Sim PTX: 7400000 instructions simulated : ctaid=(251,0,0) tid=(45,0,0)
GPGPU-Sim uArch: Shader 14 finished CTA #4 (20279,0), 5 CTAs running
GPGPU-Sim uArch: core: 14, cta: 4 initialized @(20280,0)
GPGPU-Sim PTX: 7500000 instructions simulated : ctaid=(288,0,0) tid=(93,0,0)
GPGPU-Sim uArch: Shader 14 finished CTA #2 (20398,0), 5 CTAs running
GPGPU-Sim uArch: core: 14, cta: 2 initialized @(20399,0)
GPGPU-Sim uArch: Shader 10 finished CTA #1 (20440,0), 5 CTAs running
GPGPU-Sim uArch: core: 10, cta: 1 initialized @(20441,0)
GPGPU-Sim uArch: Shader 14 finished CTA #5 (20480,0), 5 CTAs running
GPGPU-Sim uArch: core: 14, cta: 5 initialized @(20481,0)
GPGPU-Sim uArch: cycles simulated: 20500  inst.: 7275815 (ipc=354.9) sim_rate=49160 (inst/sec) elapsed = 0:0:02:28 / Sun Feb  3 06:58:08 2019
GPGPU-Sim uArch: Shader 11 finished CTA #3 (20501,0), 5 CTAs running
GPGPU-Sim uArch: core: 11, cta: 3 initialized @(20502,0)
GPGPU-Sim uArch: Shader 10 finished CTA #3 (20502,0), 5 CTAs running
GPGPU-Sim uArch: core: 10, cta: 3 initialized @(20503,0)
GPGPU-Sim uArch: Shader 12 finished CTA #2 (20570,0), 5 CTAs running
GPGPU-Sim uArch: core: 12, cta: 2 initialized @(20571,0)
GPGPU-Sim uArch: Shader 13 finished CTA #5 (20577,0), 5 CTAs running
GPGPU-Sim uArch: core: 13, cta: 5 initialized @(20578,0)
GPGPU-Sim PTX: 7600000 instructions simulated : ctaid=(209,0,0) tid=(11,0,0)
GPGPU-Sim uArch: Shader 9 finished CTA #1 (20766,0), 5 CTAs running
GPGPU-Sim uArch: core:  9, cta: 1 initialized @(20767,0)
GPGPU-Sim uArch: Shader 9 finished CTA #4 (20775,0), 5 CTAs running
GPGPU-Sim uArch: core:  9, cta: 4 initialized @(20776,0)
GPGPU-Sim uArch: Shader 3 finished CTA #3 (20776,0), 5 CTAs running
GPGPU-Sim uArch: core:  3, cta: 3 initialized @(20777,0)
GPGPU-Sim uArch: Shader 0 finished CTA #2 (20782,0), 5 CTAs running
GPGPU-Sim uArch: core:  0, cta: 2 initialized @(20783,0)
GPGPU-Sim uArch: Shader 3 finished CTA #4 (20785,0), 5 CTAs running
GPGPU-Sim uArch: core:  3, cta: 4 initialized @(20786,0)
GPGPU-Sim uArch: Shader 0 finished CTA #0 (20798,0), 5 CTAs running
GPGPU-Sim uArch: Shader 7 finished CTA #3 (20798,0), 5 CTAs running
GPGPU-Sim uArch: core:  7, cta: 3 initialized @(20799,0)
GPGPU-Sim uArch: core:  0, cta: 0 initialized @(20799,0)
GPGPU-Sim uArch: Shader 11 finished CTA #5 (20820,0), 5 CTAs running
GPGPU-Sim uArch: core: 11, cta: 5 initialized @(20821,0)
GPGPU-Sim uArch: Shader 6 finished CTA #2 (20824,0), 5 CTAs running
GPGPU-Sim uArch: core:  6, cta: 2 initialized @(20825,0)
GPGPU-Sim uArch: Shader 4 finished CTA #3 (20826,0), 5 CTAs running
GPGPU-Sim uArch: core:  4, cta: 3 initialized @(20827,0)
GPGPU-Sim uArch: Shader 13 finished CTA #4 (20830,0), 5 CTAs running
GPGPU-Sim uArch: core: 13, cta: 4 initialized @(20831,0)
GPGPU-Sim uArch: Shader 6 finished CTA #4 (20833,0), 5 CTAs running
GPGPU-Sim uArch: core:  6, cta: 4 initialized @(20834,0)
GPGPU-Sim PTX: 7700000 instructions simulated : ctaid=(306,0,0) tid=(14,0,0)
GPGPU-Sim uArch: Shader 5 finished CTA #5 (20898,0), 5 CTAs running
GPGPU-Sim uArch: core:  5, cta: 5 initialized @(20899,0)
GPGPU-Sim uArch: Shader 13 finished CTA #2 (20900,0), 5 CTAs running
GPGPU-Sim uArch: core: 13, cta: 2 initialized @(20901,0)
GPGPU-Sim uArch: Shader 0 finished CTA #1 (20920,0), 5 CTAs running
GPGPU-Sim uArch: core:  0, cta: 1 initialized @(20921,0)
GPGPU-Sim uArch: Shader 4 finished CTA #4 (20924,0), 5 CTAs running
GPGPU-Sim uArch: core:  4, cta: 4 initialized @(20925,0)
GPGPU-Sim uArch: Shader 3 finished CTA #2 (20960,0), 5 CTAs running
GPGPU-Sim uArch: core:  3, cta: 2 initialized @(20961,0)
GPGPU-Sim uArch: Shader 10 finished CTA #4 (20998,0), 5 CTAs running
GPGPU-Sim uArch: core: 10, cta: 4 initialized @(20999,0)
GPGPU-Sim uArch: cycles simulated: 21000  inst.: 7484081 (ipc=356.4) sim_rate=50228 (inst/sec) elapsed = 0:0:02:29 / Sun Feb  3 06:58:09 2019
GPGPU-Sim PTX: 7800000 instructions simulated : ctaid=(300,0,0) tid=(220,0,0)
GPGPU-Sim uArch: Shader 12 finished CTA #4 (21115,0), 5 CTAs running
GPGPU-Sim uArch: core: 12, cta: 4 initialized @(21116,0)
GPGPU-Sim uArch: Shader 12 finished CTA #0 (21152,0), 5 CTAs running
GPGPU-Sim uArch: core: 12, cta: 0 initialized @(21153,0)
GPGPU-Sim uArch: Shader 8 finished CTA #1 (21203,0), 5 CTAs running
GPGPU-Sim uArch: core:  8, cta: 1 initialized @(21204,0)
GPGPU-Sim uArch: Shader 8 finished CTA #2 (21225,0), 5 CTAs running
GPGPU-Sim uArch: core:  8, cta: 2 initialized @(21226,0)
GPGPU-Sim uArch: Shader 5 finished CTA #2 (21236,0), 5 CTAs running
GPGPU-Sim uArch: core:  5, cta: 2 initialized @(21237,0)
GPGPU-Sim uArch: Shader 8 finished CTA #0 (21242,0), 5 CTAs running
GPGPU-Sim uArch: core:  8, cta: 0 initialized @(21243,0)
GPGPU-Sim uArch: Shader 5 finished CTA #4 (21245,0), 5 CTAs running
GPGPU-Sim uArch: core:  5, cta: 4 initialized @(21246,0)
GPGPU-Sim uArch: Shader 5 finished CTA #3 (21281,0), 5 CTAs running
GPGPU-Sim uArch: core:  5, cta: 3 initialized @(21282,0)
GPGPU-Sim uArch: Shader 10 finished CTA #5 (21319,0), 5 CTAs running
GPGPU-Sim uArch: core: 10, cta: 5 initialized @(21320,0)
GPGPU-Sim uArch: Shader 7 finished CTA #5 (21323,0), 5 CTAs running
GPGPU-Sim uArch: core:  7, cta: 5 initialized @(21324,0)
GPGPU-Sim PTX: 7900000 instructions simulated : ctaid=(316,0,0) tid=(65,0,0)
GPGPU-Sim uArch: Shader 1 finished CTA #4 (21450,0), 5 CTAs running
GPGPU-Sim uArch: core:  1, cta: 4 initialized @(21451,0)
GPGPU-Sim uArch: Shader 1 finished CTA #3 (21452,0), 5 CTAs running
GPGPU-Sim uArch: core:  1, cta: 3 initialized @(21453,0)
GPGPU-Sim uArch: cycles simulated: 21500  inst.: 7683689 (ipc=357.4) sim_rate=50885 (inst/sec) elapsed = 0:0:02:31 / Sun Feb  3 06:58:11 2019
GPGPU-Sim uArch: Shader 1 finished CTA #2 (21507,0), 5 CTAs running
GPGPU-Sim uArch: core:  1, cta: 2 initialized @(21508,0)
GPGPU-Sim uArch: Shader 7 finished CTA #2 (21510,0), 5 CTAs running
GPGPU-Sim uArch: core:  7, cta: 2 initialized @(21511,0)
GPGPU-Sim PTX: 8000000 instructions simulated : ctaid=(297,0,0) tid=(49,0,0)
GPGPU-Sim uArch: Shader 2 finished CTA #2 (21572,0), 5 CTAs running
GPGPU-Sim uArch: core:  2, cta: 2 initialized @(21573,0)
GPGPU-Sim uArch: Shader 11 finished CTA #4 (21595,0), 5 CTAs running
GPGPU-Sim uArch: core: 11, cta: 4 initialized @(21596,0)
GPGPU-Sim uArch: Shader 14 finished CTA #0 (21608,0), 5 CTAs running
GPGPU-Sim uArch: core: 14, cta: 0 initialized @(21609,0)
GPGPU-Sim uArch: Shader 11 finished CTA #2 (21630,0), 5 CTAs running
GPGPU-Sim uArch: core: 11, cta: 2 initialized @(21631,0)
GPGPU-Sim PTX: 8100000 instructions simulated : ctaid=(271,0,0) tid=(105,0,0)
GPGPU-Sim uArch: Shader 2 finished CTA #3 (21906,0), 5 CTAs running
GPGPU-Sim uArch: core:  2, cta: 3 initialized @(21907,0)
GPGPU-Sim uArch: Shader 4 finished CTA #1 (21974,0), 5 CTAs running
GPGPU-Sim uArch: core:  4, cta: 1 initialized @(21975,0)
GPGPU-Sim PTX: 8200000 instructions simulated : ctaid=(262,0,0) tid=(145,0,0)
GPGPU-Sim uArch: cycles simulated: 22000  inst.: 7913749 (ipc=359.7) sim_rate=51723 (inst/sec) elapsed = 0:0:02:33 / Sun Feb  3 06:58:13 2019
GPGPU-Sim uArch: Shader 14 finished CTA #1 (22027,0), 5 CTAs running
GPGPU-Sim uArch: core: 14, cta: 1 initialized @(22028,0)
GPGPU-Sim uArch: Shader 13 finished CTA #0 (22090,0), 5 CTAs running
GPGPU-Sim uArch: core: 13, cta: 0 initialized @(22091,0)
GPGPU-Sim uArch: Shader 13 finished CTA #1 (22100,0), 5 CTAs running
GPGPU-Sim uArch: core: 13, cta: 1 initialized @(22101,0)
GPGPU-Sim uArch: Shader 9 finished CTA #0 (22148,0), 5 CTAs running
GPGPU-Sim uArch: core:  9, cta: 0 initialized @(22149,0)
GPGPU-Sim uArch: Shader 9 finished CTA #2 (22161,0), 5 CTAs running
GPGPU-Sim uArch: Shader 9 finished CTA #5 (22161,0), 4 CTAs running
GPGPU-Sim uArch: core:  9, cta: 2 initialized @(22162,0)
GPGPU-Sim uArch: core:  9, cta: 5 initialized @(22163,0)
GPGPU-Sim uArch: Shader 3 finished CTA #5 (22171,0), 5 CTAs running
GPGPU-Sim uArch: core:  3, cta: 5 initialized @(22172,0)
GPGPU-Sim PTX: 8300000 instructions simulated : ctaid=(335,0,0) tid=(190,0,0)
GPGPU-Sim uArch: Shader 6 finished CTA #3 (22179,0), 5 CTAs running
GPGPU-Sim uArch: core:  6, cta: 3 initialized @(22180,0)
GPGPU-Sim uArch: Shader 4 finished CTA #0 (22187,0), 5 CTAs running
GPGPU-Sim uArch: core:  4, cta: 0 initialized @(22188,0)
GPGPU-Sim uArch: Shader 6 finished CTA #5 (22190,0), 5 CTAs running
GPGPU-Sim uArch: core:  6, cta: 5 initialized @(22191,0)
GPGPU-Sim PTX: 8400000 instructions simulated : ctaid=(276,0,0) tid=(178,0,0)
GPGPU-Sim uArch: cycles simulated: 22500  inst.: 8181922 (ipc=363.6) sim_rate=53129 (inst/sec) elapsed = 0:0:02:34 / Sun Feb  3 06:58:14 2019
GPGPU-Sim uArch: Shader 2 finished CTA #5 (22519,0), 5 CTAs running
GPGPU-Sim uArch: core:  2, cta: 5 initialized @(22520,0)
GPGPU-Sim PTX: 8500000 instructions simulated : ctaid=(322,0,0) tid=(55,0,0)
GPGPU-Sim uArch: Shader 11 finished CTA #1 (22561,0), 5 CTAs running
GPGPU-Sim uArch: core: 11, cta: 1 initialized @(22562,0)
GPGPU-Sim uArch: Shader 2 finished CTA #4 (22567,0), 5 CTAs running
GPGPU-Sim uArch: core:  2, cta: 4 initialized @(22568,0)
GPGPU-Sim uArch: Shader 0 finished CTA #3 (22693,0), 5 CTAs running
GPGPU-Sim uArch: core:  0, cta: 3 initialized @(22694,0)
GPGPU-Sim uArch: Shader 10 finished CTA #0 (22711,0), 5 CTAs running
GPGPU-Sim uArch: core: 10, cta: 0 initialized @(22712,0)
GPGPU-Sim PTX: 8600000 instructions simulated : ctaid=(293,0,0) tid=(171,0,0)
GPGPU-Sim uArch: Shader 3 finished CTA #0 (22892,0), 5 CTAs running
GPGPU-Sim uArch: core:  3, cta: 0 initialized @(22893,0)
GPGPU-Sim uArch: Shader 4 finished CTA #2 (22930,0), 5 CTAs running
GPGPU-Sim uArch: core:  4, cta: 2 initialized @(22931,0)
GPGPU-Sim uArch: Shader 4 finished CTA #5 (22939,0), 5 CTAs running
GPGPU-Sim uArch: core:  4, cta: 5 initialized @(22940,0)
GPGPU-Sim uArch: cycles simulated: 23000  inst.: 8383307 (ipc=364.5) sim_rate=53739 (inst/sec) elapsed = 0:0:02:36 / Sun Feb  3 06:58:16 2019
GPGPU-Sim PTX: 8700000 instructions simulated : ctaid=(318,0,0) tid=(149,0,0)
GPGPU-Sim uArch: Shader 12 finished CTA #1 (23165,0), 5 CTAs running
GPGPU-Sim uArch: core: 12, cta: 1 initialized @(23166,0)
GPGPU-Sim uArch: Shader 8 finished CTA #3 (23209,0), 5 CTAs running
GPGPU-Sim uArch: core:  8, cta: 3 initialized @(23210,0)
GPGPU-Sim PTX: 8800000 instructions simulated : ctaid=(352,0,0) tid=(48,0,0)
GPGPU-Sim uArch: Shader 7 finished CTA #1 (23317,0), 5 CTAs running
GPGPU-Sim uArch: core:  7, cta: 1 initialized @(23318,0)
GPGPU-Sim uArch: Shader 1 finished CTA #5 (23336,0), 5 CTAs running
GPGPU-Sim uArch: core:  1, cta: 5 initialized @(23337,0)
GPGPU-Sim PTX: 8900000 instructions simulated : ctaid=(308,0,0) tid=(245,0,0)
GPGPU-Sim uArch: cycles simulated: 23500  inst.: 8617081 (ipc=366.7) sim_rate=54538 (inst/sec) elapsed = 0:0:02:38 / Sun Feb  3 06:58:18 2019
GPGPU-Sim PTX: 9000000 instructions simulated : ctaid=(343,0,0) tid=(148,0,0)
GPGPU-Sim uArch: Shader 13 finished CTA #3 (23866,0), 5 CTAs running
GPGPU-Sim uArch: core: 13, cta: 3 initialized @(23867,0)
GPGPU-Sim PTX: 9100000 instructions simulated : ctaid=(274,0,0) tid=(107,0,0)
GPGPU-Sim uArch: cycles simulated: 24000  inst.: 8816158 (ipc=367.3) sim_rate=55447 (inst/sec) elapsed = 0:0:02:39 / Sun Feb  3 06:58:19 2019
GPGPU-Sim uArch: Shader 11 finished CTA #0 (24166,0), 5 CTAs running
GPGPU-Sim uArch: core: 11, cta: 0 initialized @(24167,0)
GPGPU-Sim uArch: Shader 7 finished CTA #0 (24225,0), 5 CTAs running
GPGPU-Sim uArch: core:  7, cta: 0 initialized @(24226,0)
GPGPU-Sim uArch: Shader 7 finished CTA #4 (24235,0), 5 CTAs running
[...]
traffic_breakdown_coretomem[INST_ACC_R] = 1440 {8:180,}
traffic_breakdown_memtocore[CONST_ACC_R] = 2160 {72:30,}
traffic_breakdown_memtocore[GLOBAL_ACC_R] = 68549168 {136:504038,}
traffic_breakdown_memtocore[GLOBAL_ACC_W] = 880000 {8:110000,}
traffic_breakdown_memtocore[INST_ACC_R] = 24480 {136:180,}
maxmrqlatency = 316 
maxdqlatency = 0 
maxmflatency = 705 
averagemflatency = 244 
max_icnt2mem_latency = 348 
max_icnt2sh_latency = 833118 
mrq_lat_table:139991 	2750 	3183 	7780 	60780 	15888 	2336 	134 	6 	0 	0 	0 	0 	0 	0 	0 	0 	0 	0 	0 	0 	0 	0 	0 	0 	0 	0 	0 	0 	0 	0 	0 	
dq_lat_table:0 	0 	0 	0 	0 	0 	0 	0 	0 	0 	0 	0 	0 	0 	0 	0 	0 	0 	0 	0 	0 	0 	0 	0 	0 	0 	0 	0 	0 	0 	0 	0 	
mf_lat_table:0 	0 	0 	0 	0 	0 	0 	344500 	268759 	809 	0 	0 	0 	0 	0 	0 	0 	0 	0 	0 	0 	0 	0 	0 	0 	0 	0 	0 	0 	0 	0 	0 	
icnt2mem_lat_table:0 	0 	0 	546156 	56502 	5491 	3995 	2003 	101 	0 	0 	0 	0 	0 	0 	0 	0 	0 	0 	0 	0 	0 	0 	0 	
icnt2sh_lat_table:0 	0 	0 	88888 	199870 	178601 	36587 	122 	0 	0 	0 	238 	567 	1080 	2578 	5011 	10078 	20288 	34534 	35626 	0 	0 	0 	0 	
mf_lat_pw_table:0 	0 	0 	0 	0 	0 	0 	1252 	411 	0 	0 	0 	0 	0 	0 	0 	0 	0 	0 	0 	0 	0 	0 	0 	0 	0 	0 	0 	0 	0 	0 	0 	
maximum concurrent accesses to same row:
dram[0]:         5        10        10        10         9         6        18        22        20        16        11        15        22        15        13         8 
dram[1]:        10        10        11        10         8         5        24        16        19        25        14        13        18        21        18         7 
dram[2]:         4        10        11        10         6        10        22        14        14        24        14        11        16        17        13         8 
dram[3]:         5        10         8        10         6         9        20        18        21        21        16        16        11        15        12        12 
dram[4]:        10        10        10        10         7         6        18        26        23        18        12        17        19        14        15        15 
dram[5]:         9         7        12         9         5         6        24        21        18        21        19        19        13        18        12        10 
maximum service time to same row:
dram[0]:      6718      3881      4955      6442      4480      5455      4432      4385      4567      4954      4582      6158      4213      6302      6375      6524 
dram[1]:      6505      6570      4994      6449      4488      5730      4838      4383      5333      5197      4580      4968      5480      6479      6401      6530 
dram[2]:      6133      6562      6495      6384      4661      4919      5717      4449      4450      4423      4807      4976      4216      6686      6395      4426 
dram[3]:      5058      6574      6493      6382      4665      4893      4532      4404      4435      4437      4566      4695      6267      6489      6406      4590 
dram[4]:      4376      6585      6433      6417      4703      6448      4538      5694      4478      4580      6013      4707      6265      6493      6419      4001 
dram[5]:      4642      6710      6487      6426      4652      4280      4397      4428      4453      4567      3811      4720      6282      6498      6476      6369 
average row accesses per activate:
dram[0]:  1.630000  1.603344  1.672316  1.660519  1.607143  1.612752  1.650000  1.618754  1.632776  1.669923  1.677839  1.621285  1.586343  1.625173  1.651061  1.653183 
dram[1]:  1.629259  1.613052  1.680896  1.677463  1.600407  1.626722  1.651941  1.617778  1.613368  1.629351  1.666007  1.629043  1.603687  1.598262  1.632425  1.677040 
dram[2]:  1.618134  1.618577  1.674914  1.640391  1.623051  1.622429  1.654816  1.643045  1.646823  1.627666  1.640051  1.654771  1.637386  1.601227  1.607560  1.693269 
dram[3]:  1.617708  1.617962  1.666903  1.678231  1.627072  1.604374  1.652146  1.646484  1.653574  1.636132  1.642857  1.636802  1.621658  1.589050  1.646809  1.658194 
dram[4]:  1.621769  1.618888  1.663462  1.681881  1.597693  1.607483  1.643808  1.630937  1.654025  1.633562  1.646472  1.628628  1.626953  1.616429  1.659682  1.644674 
dram[5]:  1.619272  1.617881  1.670807  1.648299  1.613289  1.618430  1.649902  1.622251  1.609934  1.634615  1.630299  1.626826  1.613562  1.626866  1.629604  1.657373 
average row locality = 232848/142413 = 1.635019
number of total memory accesses made:
dram[0]:         0         0         0         0         0         0         0         0         0         0         0         0         0         0         0         0 
dram[1]:         0         0         0         0         0         0         0         0         0         0         0         0         0         0         0         0 
dram[2]:         0         0         0         0         0         0         0         0         0         0         0         0         0         0         0         0 
dram[3]:         0         0         0         0         0         0         0         0         0         0         0         0         0         0         0         0 
dram[4]:         0         0         0         0         0         0         0         0         0         0         0         0         0         0         0         0 
dram[5]:         0         0         0         0         0         0         0         0         0         0         0         0         0         0         0         0 
total accesses: 0
min_bank_accesses = 0!
min_chip_accesses = 0!
number of total read accesses:
dram[0]:      2391      2337      2209      2275      2297      2366      2413      2514      2395      2338      2406      2302      2380      2313      2155      2385 
dram[1]:      2383      2386      2241      2330      2321      2320      2352      2429      2419      2334      2468      2321      2401      2354      2232      2332 
dram[2]:      2391      2393      2285      2361      2348      2390      2444      2383      2416      2461      2497      2230      2296      2311      2233      2326 
dram[3]:      2305      2352      2205      2310      2313      2371      2458      2407      2526      2517      2384      2321      2391      2369      2209      2378 
dram[4]:      2320      2355      2269      2275      2314      2314      2355      2422      2422      2325      2264      2424      2462      2343      2189      2286 
dram[5]:      2342      2385      2270      2282      2385      2319      2416      2396      2375      2322      2304      2404      2412      2363      2287      2161 
total reads: 225442
bank skew: 2526/2155 = 1.17
chip skew: 37816/37339 = 1.01
number of total write accesses:
dram[0]:        54        60       159       156        43        37       128       110        46        55        47        44        36        37       102       108 
dram[1]:        56        61       161       156        38        42       116       119        43        53        56        46        35        37       104        93 
dram[2]:        54        64       152       157        46        55       116       121        46        57        50        42        34        38       106       114 
dram[3]:        52        62       147       157        43        50       121       122        42        55        54        54        35        40       113       101 
dram[4]:        64        62       153       157        41        49       114       119        64        60        46        45        37        38       108       107 
dram[5]:        61        58       151       141        43        52       110       112        56        58        42        46        39        35       102        98 
total reads: 7406
bank skew: 161/34 = 4.74
chip skew: 1264/1204 = 1.05
average mf latency per bank:
dram[0]:        545       566       605       606       681       610       705       724       603       583       615       634       743       741       678       615
dram[1]:        558       552       597       594       679       593       771       694       576       635       641       588       723       780       723       599
dram[2]:        564       561       597       587       658       761       740       697       565       601       608       614       734       745       654       632
dram[3]:        554       557       600       607       675       646       703       718       590       561       588       678       736       714       637       662
dram[4]:        571       551       606       611       682       649       732       744       617       575       637       696       731       739       674       654
dram[5]:        573       550       612       592       627       620       742       708       581       591       733       664       701       722       664       640
maximum mf latency per bank:
dram[0]:        571       546       575       546       541       612       587       602       534       539       641       544       598       556       576       587
dram[1]:        611       598       591       608       530       583       643       559       520       529       626       498       534       557       581       548
dram[2]:        546       549       541       562       548       548       635       572       504       562       597       523       622       502       705       570
dram[3]:        573       563       576       567       620       583       561       572       580       569       655       566       618       585       624       635
dram[4]:        530       537       554       531       580       662       669       618       649       601       659       601       687       533       668       585
dram[5]:        542       562       536       525       588       487       620       574       543       532       547       514       544       570       647       534
Memory Partition 0: 
Cache L2_bank_000:
MSHR contents

Cache L2_bank_001:
MSHR contents

In Dram Latency Queue (total = 0): 
DRAM[0]: 16 bks, busW=4 BL=8 CL=12, tRRD=2 tCCD=6, tRCD=12 tRAS=28 tRP=12 tRC=40
n_cmd=833119 n_nop=709077 n_act=23664 n_pre=23648 n_req=38698 n_rd=74952 n_write=1778 bw_util=0.1842
n_activity=610111 dram_eff=0.2515
bk0: 4782a 779077i bk1: 4674a 778697i bk2: 4418a 780744i bk3: 4550a 778010i bk4: 4594a 780482i bk5: 4732a 779443i bk6: 4826a 776176i bk7: 5028a 772682i bk8: 4790a 779226i bk9: 4676a 781012i bk10: 4812a 779816i bk11: 4604a 780892i bk12: 4760a 777994i bk13: 4626a 780375i bk14: 4310a 782094i bk15: 4770a 777188i 
dram_util_bins: 0 0 0 0 0 0 0 0 0 0
dram_eff_bins: 0 0 0 0 0 0 0 0 0 0
mrqq: max=15 avg=0.483934
Memory Partition 1: 
Cache L2_bank_002:
MSHR contents

Cache L2_bank_003:
MSHR contents

In Dram Latency Queue (total = 0): 
DRAM[1]: 16 bks, busW=4 BL=8 CL=12, tRRD=2 tCCD=6, tRCD=12 tRAS=28 tRP=12 tRC=40
n_cmd=833119 n_nop=708572 n_act=23771 n_pre=23755 n_req=38839 n_rd=75246 n_write=1775 bw_util=0.1849
n_activity=611857 dram_eff=0.2518
bk0: 4766a 778920i bk1: 4772a 778222i bk2: 4482a 779689i bk3: 4660a 777180i bk4: 4642a 779918i bk5: 4640a 780161i bk6: 4704a 777101i bk7: 4858a 774199i bk8: 4838a 778402i bk9: 4668a 779952i bk10: 4936a 778133i bk11: 4642a 780341i bk12: 4802a 777628i bk13: 4708a 778540i bk14: 4464a 779310i bk15: 4664a 778654i 
dram_util_bins: 0 0 0 0 0 0 0 0 0 0
dram_eff_bins: 0 0 0 0 0 0 0 0 0 0
mrqq: max=16 avg=0.482006
Memory Partition 2: 
Cache L2_bank_004:
MSHR contents

Cache L2_bank_005:
MSHR contents

In Dram Latency Queue (total = 0): 
DRAM[2]: 16 bks, busW=4 BL=8 CL=12, tRRD=2 tCCD=6, tRCD=12 tRAS=28 tRP=12 tRC=40
n_cmd=833119 n_nop=708138 n_act=23826 n_pre=23810 n_req=39017 n_rd=75530 n_write=1815 bw_util=0.1857
n_activity=612869 dram_eff=0.2524
bk0: 4782a 778867i bk1: 4786a 778336i bk2: 4570a 778900i bk3: 4722a 775941i bk4: 4696a 779818i bk5: 4780a 778204i bk6: 4888a 774842i bk7: 4766a 776249i bk8: 4832a 779706i bk9: 4922a 777004i bk10: 4994a 776492i bk11: 4460a 782885i bk12: 4592a 780934i bk13: 4622a 779705i bk14: 4466a 779358i bk15: 4652a 779150i 
dram_util_bins: 0 0 0 0 0 0 0 0 0 0
dram_eff_bins: 0 0 0 0 0 0 0 0 0 0
mrqq: max=16 avg=0.483715
Memory Partition 3: 
Cache L2_bank_006:
MSHR contents

Cache L2_bank_007:
MSHR contents

In Dram Latency Queue (total = 0): 
DRAM[3]: 16 bks, busW=4 BL=8 CL=12, tRRD=2 tCCD=6, tRCD=12 tRAS=28 tRP=12 tRC=40
n_cmd=833119 n_nop=707975 n_act=23861 n_pre=23845 n_req=39064 n_rd=75632 n_write=1806 bw_util=0.1859
n_activity=609961 dram_eff=0.2539
bk0: 4610a 780229i bk1: 4704a 779055i bk2: 4410a 780537i bk3: 4620a 778916i bk4: 4626a 780754i bk5: 4742a 778124i bk6: 4916a 774911i bk7: 4814a 775020i bk8: 5052a 777286i bk9: 5034a 776122i bk10: 4768a 778873i bk11: 4642a 780379i bk12: 4782a 778649i bk13: 4738a 777575i bk14: 4418a 780023i bk15: 4756a 776868i 
dram_util_bins: 0 0 0 0 0 0 0 0 0 0
dram_eff_bins: 0 0 0 0 0 0 0 0 0 0
mrqq: max=16 avg=0.487962
Memory Partition 4: 
Cache L2_bank_008:
MSHR contents

Cache L2_bank_009:
MSHR contents

In Dram Latency Queue (total = 0): 
DRAM[4]: 16 bks, busW=4 BL=8 CL=12, tRRD=2 tCCD=6, tRCD=12 tRAS=28 tRP=12 tRC=40
n_cmd=833119 n_nop=709435 n_act=23599 n_pre=23583 n_req=38603 n_rd=74678 n_write=1824 bw_util=0.1837
n_activity=608988 dram_eff=0.2512
bk0: 4640a 780556i bk1: 4710a 779271i bk2: 4538a 778942i bk3: 4550a 779024i bk4: 4628a 779781i bk5: 4628a 779380i bk6: 4710a 777444i bk7: 4844a 774920i bk8: 4844a 778632i bk9: 4650a 780169i bk10: 4528a 781986i bk11: 4848a 778192i bk12: 4924a 777182i bk13: 4686a 778749i bk14: 4378a 781290i bk15: 4572a 779039i 
dram_util_bins: 0 0 0 0 0 0 0 0 0 0
dram_eff_bins: 0 0 0 0 0 0 0 0 0 0
mrqq: max=16 avg=0.480437
Memory Partition 5: 
Cache L2_bank_010:
MSHR contents

Cache L2_bank_011:
MSHR contents

In Dram Latency Queue (total = 0): 
DRAM[5]: 16 bks, busW=4 BL=8 CL=12, tRRD=2 tCCD=6, tRCD=12 tRAS=28 tRP=12 tRC=40
n_cmd=833119 n_nop=709142 n_act=23693 n_pre=23677 n_req=38627 n_rd=74846 n_write=1761 bw_util=0.1839
n_activity=611392 dram_eff=0.2506
bk0: 4684a 779699i bk1: 4770a 778808i bk2: 4540a 779149i bk3: 4564a 778741i bk4: 4770a 778831i bk5: 4638a 779800i bk6: 4832a 775524i bk7: 4792a 775268i bk8: 4750a 778806i bk9: 4644a 780498i bk10: 4608a 781522i bk11: 4808a 778847i bk12: 4824a 777996i bk13: 4726a 779225i bk14: 4574a 778753i bk15: 4322a 782365i 
dram_util_bins: 0 0 0 0 0 0 0 0 0 0
dram_eff_bins: 0 0 0 0 0 0 0 0 0 0
mrqq: max=16 avg=0.474405

========= L2 cache stats =========
L2_cache_bank[0]: Access = 51549, Miss = 18646, Miss_rate = 0.362, Pending_hits = 759, Reservation_fails = 9928
L2_cache_bank[1]: Access = 50128, Miss = 18830, Miss_rate = 0.376, Pending_hits = 727, Reservation_fails = 8234
L2_cache_bank[2]: Access = 52338, Miss = 18817, Miss_rate = 0.360, Pending_hits = 752, Reservation_fails = 7982
L2_cache_bank[3]: Access = 50246, Miss = 18806, Miss_rate = 0.374, Pending_hits = 701, Reservation_fails = 8432
L2_cache_bank[4]: Access = 51061, Miss = 18910, Miss_rate = 0.370, Pending_hits = 702, Reservation_fails = 7351
L2_cache_bank[5]: Access = 51948, Miss = 18855, Miss_rate = 0.363, Pending_hits = 747, Reservation_fails = 8622
L2_cache_bank[6]: Access = 50640, Miss = 18791, Miss_rate = 0.371, Pending_hits = 717, Reservation_fails = 8223
L2_cache_bank[7]: Access = 51394, Miss = 19025, Miss_rate = 0.370, Pending_hits = 736, Reservation_fails = 8983
L2_cache_bank[8]: Access = 51049, Miss = 18595, Miss_rate = 0.364, Pending_hits = 773, Reservation_fails = 9381
L2_cache_bank[9]: Access = 51604, Miss = 18744, Miss_rate = 0.363, Pending_hits = 739, Reservation_fails = 8801
L2_cache_bank[10]: Access = 51569, Miss = 18791, Miss_rate = 0.364, Pending_hits = 755, Reservation_fails = 7972
L2_cache_bank[11]: Access = 50722, Miss = 18632, Miss_rate = 0.367, Pending_hits = 683, Reservation_fails = 7911
L2_total_cache_accesses = 614248
L2_total_cache_misses = 225442
L2_total_cache_miss_rate = 0.3670
L2_total_cache_pending_hits = 8791
L2_total_cache_reservation_fails = 101820
L2_total_cache_breakdown:
	L2_cache_stats_breakdown[GLOBAL_ACC_R][HIT] = 273909
	L2_cache_stats_breakdown[GLOBAL_ACC_R][HIT_RESERVED] = 6139
	L2_cache_stats_breakdown[GLOBAL_ACC_R][MISS] = 223990
	L2_cache_stats_breakdown[GLOBAL_ACC_R][RESERVATION_FAIL] = 66423
	L2_cache_stats_breakdown[CONST_ACC_R][HIT] = 26
	L2_cache_stats_breakdown[CONST_ACC_R][HIT_RESERVED] = 3
	L2_cache_stats_breakdown[CONST_ACC_R][MISS] = 1
	L2_cache_stats_breakdown[CONST_ACC_R][RESERVATION_FAIL] = 107
	L2_cache_stats_breakdown[GLOBAL_ACC_W][HIT] = 105947
	L2_cache_stats_breakdown[GLOBAL_ACC_W][HIT_RESERVED] = 2614
	L2_cache_stats_breakdown[GLOBAL_ACC_W][MISS] = 1439
	L2_cache_stats_breakdown[GLOBAL_ACC_W][RESERVATION_FAIL] = 34233
	L2_cache_stats_breakdown[INST_ACC_R][HIT] = 133
	L2_cache_stats_breakdown[INST_ACC_R][HIT_RESERVED] = 35
	L2_cache_stats_breakdown[INST_ACC_R][MISS] = 12
	L2_cache_stats_breakdown[INST_ACC_R][RESERVATION_FAIL] = 1057
L2_cache_data_port_util = 0.122
L2_cache_fill_port_util = 0.090

icnt_total_pkts_mem_to_simt=2631180
icnt_total_pkts_simt_to_mem=724248
LD_mem_lat_dist  0 0 0 0 0 0 0 0 0 0 0 0 0 0 0 0 0 0 0 0 0 0 0 0 0 0 0
ST_mem_lat_dist  0 0 0 0 0 0 0 0 0 0 0 0 0 0 0 0 0 0 0 0 0 0 0 0 0 0 0
----------------------------Interconnect-DETAILS--------------------------------
Class 0:
Packet latency average = 19.0652
	minimum = 6
	maximum = 199
Network latency average = 15.6311
	minimum = 6
	maximum = 198
Slowest packet = 720020
Flit latency average = 16.0383
	minimum = 6
	maximum = 198
Slowest flit = 1956353
Fragmentation average = 0.00332616
	minimum = 0
	maximum = 179
Injected packet rate average = 0.0511834
	minimum = 0.0453957 (at node 6)
	maximum = 0.0596367 (at node 25)
Accepted packet rate average = 0.0511834
	minimum = 0.0453957 (at node 6)
	maximum = 0.0596367 (at node 25)
Injected flit rate average = 0.140827
	minimum = 0.0529651 (at node 6)
	maximum = 0.260073 (at node 25)
Accepted flit rate average= 0.140827
	minimum = 0.065454 (at node 21)
	maximum = 0.202667 (at node 14)
Injected packet length average = 2.75141
Accepted packet length average = 2.75141
Total in-flight flits = 0 (0 measured)
====== Overall Traffic Statistics ======
====== Traffic class 0 ======
Packet latency average = 19.1635 (2 samples)
	minimum = 6 (2 samples)
	maximum = 232.5 (2 samples)
Network latency average = 15.6319 (2 samples)
	minimum = 6 (2 samples)
	maximum = 231.5 (2 samples)
Flit latency average = 15.9401 (2 samples)
	minimum = 6 (2 samples)
	maximum = 231.5 (2 samples)
Fragmentation average = 0.00348999 (2 samples)
	minimum = 0 (2 samples)
	maximum = 200 (2 samples)
Injected packet rate average = 0.0547875 (2 samples)
	minimum = 0.0483705 (2 samples)
	maximum = 0.064413 (2 samples)
Accepted packet rate average = 0.0547875 (2 samples)
	minimum = 0.0483705 (2 samples)
	maximum = 0.064413 (2 samples)
Injected flit rate average = 0.149591 (2 samples)
	minimum = 0.057086 (2 samples)
	maximum = 0.277506 (2 samples)
Accepted flit rate average = 0.149591 (2 samples)
	minimum = 0.0708299 (2 samples)
	maximum = 0.21519 (2 samples)
Injected packet size average = 2.73038 (2 samples)
Accepted packet size average = 2.73038 (2 samples)
Hops average = 1 (2 samples)
----------------------------END-of-Interconnect-DETAILS-------------------------


gpgpu_simulation_time = 0 days, 1 hrs, 11 min, 32 sec (4292 sec)
gpgpu_simulation_rate = 76115 (inst/sec)
gpgpu_simulation_rate = 194 (cycle/sec)
GPGPU-Sim: synchronize waiting for inactive GPU simulation
GPGPU-Sim API: Stream Manager State
GPGPU-Sim: detected inactive GPU simulation thread
Time spent in different stages of GPU_CUDA KERNEL:
 0.000071000002 s,  0.000003368861 % : GPU: SET DEVICE / DRIVER INIT
 0.000009000000 s,  0.000000427039 % : GPU MEM: ALO
 1.951521039009 s,  0.092597231269 % : GPU MEM: COPY IN
2105.581298828125 s, 99.907196044922 % : GPU: KERNEL
 0.004174999893 s,  0.000198098525 % : GPU MEM: COPY OUT
 0.000012000000 s,  0.000000569385 % : GPU MEM: FRE
Total time:
2107.537109375000 s
> > > > > > > > > > 
