

        *** GPGPU-Sim Simulator Version 3.2.2  [build 0] ***


GPGPU-Sim PTX: simulation mode 0 (can change with PTX_SIM_MODE_FUNC environment variable:
               1=functional simulation only, 0=detailed performance simulator)
GPGPU-Sim: Configuration options:

-network_mode                           1 # Interconnection network mode
-inter_config_file   config_fermi_islip.icnt # Interconnection network config file
-gpgpu_ptx_use_cuobjdump                    1 # Use cuobjdump to extract ptx and sass from binaries
-gpgpu_experimental_lib_support                    0 # Try to extract code from cuda libraries [Broken because of unknown cudaGetExportTable]
-gpgpu_ptx_convert_to_ptxplus                    0 # Convert SASS (native ISA) to ptxplus and run ptxplus
-gpgpu_ptx_force_max_capability                   20 # Force maximum compute capability
-gpgpu_ptx_inst_debug_to_file                    0 # Dump executed instructions' debug information to file
-gpgpu_ptx_inst_debug_file       inst_debug.txt # Executed instructions' debug output file
-gpgpu_ptx_inst_debug_thread_uid                    1 # Thread UID for executed instructions' debug output
-gpgpu_simd_model                       1 # 1 = post-dominator
-gpgpu_shader_core_pipeline              1536:32 # shader core pipeline config, i.e., {<nthread>:<warpsize>}
-gpgpu_tex_cache:l1  4:128:24,L:R:m:N:L,F:128:4,128:2 # per-shader L1 texture cache  (READ-ONLY) config  {<nsets>:<bsize>:<assoc>,<rep>:<wr>:<alloc>:<wr_alloc>,<mshr>:<N>:<merge>,<mq>:<rf>}
-gpgpu_const_cache:l1 64:64:2,L:R:f:N:L,A:2:32,4 # per-shader L1 constant memory cache  (READ-ONLY) config  {<nsets>:<bsize>:<assoc>,<rep>:<wr>:<alloc>:<wr_alloc>,<mshr>:<N>:<merge>,<mq>} 
-gpgpu_cache:il1     4:128:4,L:R:f:N:L,A:2:32,4 # shader L1 instruction cache config  {<nsets>:<bsize>:<assoc>,<rep>:<wr>:<alloc>:<wr_alloc>,<mshr>:<N>:<merge>,<mq>} 
-gpgpu_cache:dl1     32:128:4,L:L:m:N:H,A:32:8,8 # per-shader L1 data cache config  {<nsets>:<bsize>:<assoc>,<rep>:<wr>:<alloc>:<wr_alloc>,<mshr>:<N>:<merge>,<mq> | none}
-gpgpu_cache:dl1PrefL1                 none # per-shader L1 data cache config  {<nsets>:<bsize>:<assoc>,<rep>:<wr>:<alloc>:<wr_alloc>,<mshr>:<N>:<merge>,<mq> | none}
-gpgpu_cache:dl1PreShared                 none # per-shader L1 data cache config  {<nsets>:<bsize>:<assoc>,<rep>:<wr>:<alloc>:<wr_alloc>,<mshr>:<N>:<merge>,<mq> | none}
-gmem_skip_L1D                          0 # global memory access skip L1D cache (implements -Xptxas -dlcm=cg, default=no skip)
-gpgpu_perfect_mem                      0 # enable perfect memory mode (no cache miss)
-n_regfile_gating_group                    4 # group of lanes that should be read/written together)
-gpgpu_clock_gated_reg_file                    0 # enable clock gated reg file for power calculations
-gpgpu_clock_gated_lanes                    0 # enable clock gated lanes for power calculations
-gpgpu_shader_registers                32768 # Number of registers per shader core. Limits number of concurrent CTAs. (default 8192)
-gpgpu_shader_cta                       8 # Maximum number of concurrent CTAs in shader (default 8)
-gpgpu_num_cta_barriers                   16 # Maximum number of named barriers per CTA (default 16)
-gpgpu_n_clusters                      15 # number of processing clusters
-gpgpu_n_cores_per_cluster                    1 # number of simd cores per cluster
-gpgpu_n_cluster_ejection_buffer_size                    8 # number of packets in ejection buffer
-gpgpu_n_ldst_response_buffer_size                    2 # number of response packets in ld/st unit ejection buffer
-gpgpu_shmem_size                   16384 # Size of shared memory per shader core (default 16kB)
-gpgpu_shmem_size                   49152 # Size of shared memory per shader core (default 16kB)
-gpgpu_shmem_size_PrefL1                16384 # Size of shared memory per shader core (default 16kB)
-gpgpu_shmem_size_PrefShared                16384 # Size of shared memory per shader core (default 16kB)
-gpgpu_shmem_num_banks                   32 # Number of banks in the shared memory in each shader core (default 16)
-gpgpu_shmem_limited_broadcast                    0 # Limit shared memory to do one broadcast per cycle (default on)
-gpgpu_shmem_warp_parts                    1 # Number of portions a warp is divided into for shared memory bank conflict check 
-gpgpu_warpdistro_shader                   -1 # Specify which shader core to collect the warp size distribution from
-gpgpu_warp_issue_shader                    0 # Specify which shader core to collect the warp issue distribution from
-gpgpu_local_mem_map                    1 # Mapping from local memory space address to simulated GPU physical address space (default = enabled)
-gpgpu_num_reg_banks                   16 # Number of register banks (default = 8)
-gpgpu_reg_bank_use_warp_id                    0 # Use warp ID in mapping registers to banks (default = off)
-gpgpu_operand_collector_num_units_sp                    6 # number of collector units (default = 4)
-gpgpu_operand_collector_num_units_sfu                    8 # number of collector units (default = 4)
-gpgpu_operand_collector_num_units_mem                    2 # number of collector units (default = 2)
-gpgpu_operand_collector_num_units_gen                    0 # number of collector units (default = 0)
-gpgpu_operand_collector_num_in_ports_sp                    2 # number of collector unit in ports (default = 1)
-gpgpu_operand_collector_num_in_ports_sfu                    1 # number of collector unit in ports (default = 1)
-gpgpu_operand_collector_num_in_ports_mem                    1 # number of collector unit in ports (default = 1)
-gpgpu_operand_collector_num_in_ports_gen                    0 # number of collector unit in ports (default = 0)
-gpgpu_operand_collector_num_out_ports_sp                    2 # number of collector unit in ports (default = 1)
-gpgpu_operand_collector_num_out_ports_sfu                    1 # number of collector unit in ports (default = 1)
-gpgpu_operand_collector_num_out_ports_mem                    1 # number of collector unit in ports (default = 1)
-gpgpu_operand_collector_num_out_ports_gen                    0 # number of collector unit in ports (default = 0)
-gpgpu_coalesce_arch                   13 # Coalescing arch (default = 13, anything else is off for now)
-gpgpu_num_sched_per_core                    2 # Number of warp schedulers per core
-gpgpu_max_insn_issue_per_warp                    1 # Max number of instructions that can be issued per warp in one cycle by scheduler
-gpgpu_simt_core_sim_order                    1 # Select the simulation order of cores in a cluster (0=Fix, 1=Round-Robin)
-gpgpu_pipeline_widths        2,1,1,2,1,1,2 # Pipeline widths ID_OC_SP,ID_OC_SFU,ID_OC_MEM,OC_EX_SP,OC_EX_SFU,OC_EX_MEM,EX_WB
-gpgpu_num_sp_units                     2 # Number of SP units (default=1)
-gpgpu_num_sfu_units                    1 # Number of SF units (default=1)
-gpgpu_num_mem_units                    1 # Number if ldst units (default=1) WARNING: not hooked up to anything
-gpgpu_scheduler                      gto # Scheduler configuration: < lrr | gto | two_level_active > If two_level_active:<num_active_warps>:<inner_prioritization>:<outer_prioritization>For complete list of prioritization values see shader.h enum scheduler_prioritization_typeDefault: gto
-gpgpu_dram_scheduler                    1 # 0 = fifo, 1 = FR-FCFS (defaul)
-gpgpu_dram_partition_queues              8:8:8:8 # i2$:$2d:d2$:$2i
-l2_ideal                               0 # Use a ideal L2 cache that always hit
-gpgpu_cache:dl2     64:128:8,L:B:m:W:L,A:32:4,4:0,32 # unified banked L2 data cache config  {<nsets>:<bsize>:<assoc>,<rep>:<wr>:<alloc>:<wr_alloc>,<mshr>:<N>:<merge>,<mq>}
-gpgpu_cache:dl2_texture_only                    0 # L2 cache used for texture only
-gpgpu_n_mem                            6 # number of memory modules (e.g. memory controllers) in gpu
-gpgpu_n_sub_partition_per_mchannel                    2 # number of memory subpartition in each memory module
-gpgpu_n_mem_per_ctrlr                    2 # number of memory chips per memory controller
-gpgpu_memlatency_stat                   14 # track and display latency statistics 0x2 enables MC, 0x4 enables queue logs
-gpgpu_frfcfs_dram_sched_queue_size                   16 # 0 = unlimited (default); # entries per chip
-gpgpu_dram_return_queue_size                   84 # 0 = unlimited (default); # entries per chip
-gpgpu_dram_buswidth                    4 # default = 4 bytes (8 bytes per cycle at DDR)
-gpgpu_dram_burst_length                    8 # Burst length of each DRAM request (default = 4 data bus cycle)
-dram_data_command_freq_ratio                    4 # Frequency ratio between DRAM data bus and command bus (default = 2 times, i.e. DDR)
-gpgpu_dram_timing_opt nbk=16:CCD=2:RRD=6:RCD=12:RAS=28:RP=12:RC=40: CL=12:WL=4:CDLR=5:WR=12:nbkgrp=4:CCDL=3:RTPL=2 # DRAM timing parameters = {nbk:tCCD:tRRD:tRCD:tRAS:tRP:tRC:CL:WL:tCDLR:tWR:nbkgrp:tCCDL:tRTPL}
-rop_latency                          120 # ROP queue latency (default 85)
-dram_latency                         100 # DRAM latency (default 30)
-gpgpu_mem_addr_mapping dramid@8;00000000.00000000.00000000.00000000.0000RRRR.RRRRRRRR.BBBCCCCB.CCSSSSSS # mapping memory address to dram model {dramid@<start bit>;<memory address map>}
-gpgpu_mem_addr_test                    0 # run sweep test to check address mapping for aliased address
-gpgpu_mem_address_mask                    1 # 0 = old addressing mask, 1 = new addressing mask, 2 = new add. mask + flipped bank sel and chip sel bits
-gpuwattch_xml_file  gpuwattch_gtx480.xml # GPUWattch XML file
-power_simulation_enabled                    1 # Turn on power simulator (1=On, 0=Off)
-power_per_cycle_dump                    0 # Dump detailed power output each cycle
-power_trace_enabled                    0 # produce a file for the power trace (1=On, 0=Off)
-power_trace_zlevel                     6 # Compression level of the power trace output log (0=no comp, 9=highest)
-steady_power_levels_enabled                    0 # produce a file for the steady power levels (1=On, 0=Off)
-steady_state_definition                  8:4 # allowed deviation:number of samples
-gpgpu_max_cycle                        0 # terminates gpu simulation early (0 = no limit)
-gpgpu_max_insn                         0 # terminates gpu simulation early (0 = no limit)
-gpgpu_max_cta                          0 # terminates gpu simulation early (0 = no limit)
-gpgpu_runtime_stat                   500 # display runtime statistics such as dram utilization {<freq>:<flag>}
-liveness_message_freq                    1 # Minimum number of seconds between simulation liveness messages (0 = always print)
-gpgpu_flush_l1_cache                    0 # Flush L1 cache at the end of each kernel call
-gpgpu_flush_l2_cache                    0 # Flush L2 cache at the end of each kernel call
-gpgpu_deadlock_detect                    1 # Stop the simulation at deadlock (1=on (default), 0=off)
-gpgpu_ptx_instruction_classification                    0 # if enabled will classify ptx instruction types per kernel (Max 255 kernels now)
-gpgpu_ptx_sim_mode                     0 # Select between Performance (default) or Functional simulation (1)
-gpgpu_clock_domains 700.0:700.0:700.0:700.0 # Clock Domain Frequencies in MhZ {<Core Clock>:<ICNT Clock>:<L2 Clock>:<DRAM Clock>}
-gpgpu_max_concurrent_kernel                    8 # maximum kernels that can run concurrently on GPU
-gpgpu_cflog_interval                    0 # Interval between each snapshot in control flow logger
-visualizer_enabled                     0 # Turn on visualizer output (1=On, 0=Off)
-visualizer_outputfile                 NULL # Specifies the output log file for visualizer
-visualizer_zlevel                      6 # Compression level of the visualizer output log (0=no comp, 9=highest)
-trace_enabled                          0 # Turn on traces
-trace_components                    none # comma seperated list of traces to enable. Complete list found in trace_streams.tup. Default none
-trace_sampling_core                    0 # The core which is printed using CORE_DPRINTF. Default 0
-trace_sampling_memory_partition                   -1 # The memory partition which is printed using MEMPART_DPRINTF. Default -1 (i.e. all)
-enable_ptx_file_line_stats                    1 # Turn on PTX source line statistic profiling. (1 = On)
-ptx_line_stats_filename gpgpu_inst_stats.txt # Output file for PTX source line statistics.
-save_embedded_ptx                      0 # saves ptx files embedded in binary as <n>.ptx
-keep                                   0 # keep intermediate files created by GPGPU-Sim when interfacing with external programs
-gpgpu_ptx_save_converted_ptxplus                    0 # Saved converted ptxplus to a file
-ptx_opcode_latency_int         4,13,4,5,145 # Opcode latencies for integers <ADD,MAX,MUL,MAD,DIV>Default 1,1,19,25,145
-ptx_opcode_latency_fp          4,13,4,5,39 # Opcode latencies for single precision floating points <ADD,MAX,MUL,MAD,DIV>Default 1,1,1,1,30
-ptx_opcode_latency_dp         8,19,8,8,330 # Opcode latencies for double precision floating points <ADD,MAX,MUL,MAD,DIV>Default 8,8,8,8,335
-ptx_opcode_initiation_int            1,2,2,1,8 # Opcode initiation intervals for integers <ADD,MAX,MUL,MAD,DIV>Default 1,1,4,4,32
-ptx_opcode_initiation_fp            1,2,1,1,4 # Opcode initiation intervals for single precision floating points <ADD,MAX,MUL,MAD,DIV>Default 1,1,1,1,5
-ptx_opcode_initiation_dp         8,16,8,8,130 # Opcode initiation intervals for double precision floating points <ADD,MAX,MUL,MAD,DIV>Default 8,8,8,8,130
DRAM Timing Options:
nbk                                    16 # number of banks
CCD                                     2 # column to column delay
RRD                                     6 # minimal delay between activation of rows in different banks
RCD                                    12 # row to column delay
RAS                                    28 # time needed to activate row
RP                                     12 # time needed to precharge (deactivate) row
RC                                     40 # row cycle time
CDLR                                    5 # switching from write to read (changes tWTR)
WR                                     12 # last data-in to row precharge
CL                                     12 # CAS latency
WL                                      4 # Write latency
nbkgrp                                  4 # number of bank groups
CCDL                                    3 # column to column delay between accesses to different bank groups
RTPL                                    2 # read to precharge delay between accesses to different bank groups
Total number of memory sub partition = 12
addr_dec_mask[CHIP]  = 0000000000000000 	high:64 low:0
addr_dec_mask[BK]    = 000000000000e100 	high:16 low:8
addr_dec_mask[ROW]   = 000000000fff0000 	high:28 low:16
addr_dec_mask[COL]   = 0000000000001eff 	high:13 low:0
addr_dec_mask[BURST] = 000000000000003f 	high:6 low:0
sub_partition_id_mask = 0000000000000100
GPGPU-Sim uArch: clock freqs: 700000000.000000:700000000.000000:700000000.000000:700000000.000000
GPGPU-Sim uArch: clock periods: 0.00000000142857142857:0.00000000142857142857:0.00000000142857142857:0.00000000142857142857
*** Initializing Memory Statistics ***
GPGPU-Sim uArch: interconnect node map (shaderID+MemID to icntID)
GPGPU-Sim uArch: Memory nodes ID start from index: 15
GPGPU-Sim uArch:    0   1   2   3   4
GPGPU-Sim uArch:    5   6   7   8   9
GPGPU-Sim uArch:   10  11  12  13  14
GPGPU-Sim uArch:   15  16  17  18  19
GPGPU-Sim uArch:   20  21  22  23  24
GPGPU-Sim uArch:   25  26
GPGPU-Sim uArch: interconnect node reverse map (icntID to shaderID+MemID)
GPGPU-Sim uArch: Memory nodes start from ID: 15
GPGPU-Sim uArch:    0   1   2   3   4
GPGPU-Sim uArch:    5   6   7   8   9
GPGPU-Sim uArch:   10  11  12  13  14
GPGPU-Sim uArch:   15  16  17  18  19
GPGPU-Sim uArch:   20  21  22  23  24
GPGPU-Sim uArch:   25  26
42d117fd331a1a4ac158c91be88c7a56  /home/gpgpu-sim/ECE523_Repo/benchmarks/test/gaussian-rodinia-3.1
GPGPU-Sim uArch: performance model initialization complete.
GPGPU-Sim PTX: __cudaRegisterFatBinary, fat_cubin_handle = 1, filename=gaussian.cu
self exe links to: /home/gpgpu-sim/ECE523_Repo/benchmarks/test/gaussian-rodinia-3.1
Running md5sum using "md5sum /home/gpgpu-sim/ECE523_Repo/benchmarks/test/gaussian-rodinia-3.1 "
Running cuobjdump using "$CUDA_INSTALL_PATH/bin/cuobjdump -ptx -elf -sass /home/gpgpu-sim/ECE523_Repo/benchmarks/test/gaussian-rodinia-3.1 > _cuobjdump_complete_output_3tEkS0"
Parsing file _cuobjdump_complete_output_3tEkS0
######### cuobjdump parser ########
## Adding new section PTX
Adding ptx filename: _cuobjdump_1.ptx
Adding arch: sm_30
Adding identifier: gaussian.cu
## Adding new section ELF
Adding arch: sm_30
Adding identifier: gaussian.cu
## Adding new section PTX
Adding ptx filename: _cuobjdump_2.ptx
Adding arch: sm_13
Adding identifier: gaussian.cu
## Adding new section ELF
Adding arch: sm_13
Adding identifier: gaussian.cu
## Adding new section ELF
Adding arch: sm_20
Adding identifier: gaussian.cu
## Adding new section PTX
Adding ptx filename: _cuobjdump_3.ptx
Adding arch: sm_20
Adding identifier: gaussian.cu
## Adding new section ELF
Adding arch: sm_10
Adding identifier: gaussian.cu
## Adding new section PTX
Adding ptx filename: _cuobjdump_4.ptx
Adding arch: sm_10
Adding identifier: gaussian.cu
Done parsing!!!
GPGPU-Sim PTX: __cudaRegisterFunction _Z4Fan2PfS_S_iii : hostFun 0x0x40219f, fat_cubin_handle = 1
GPGPU-Sim PTX: instruction assembly for function '_Z4Fan1PfS_ii'...   done.
GPGPU-Sim PTX: finding reconvergence points for '_Z4Fan1PfS_ii'...
GPGPU-Sim PTX: Finding dominators for '_Z4Fan1PfS_ii'...
GPGPU-Sim PTX: Finding immediate dominators for '_Z4Fan1PfS_ii'...
GPGPU-Sim PTX: Finding postdominators for '_Z4Fan1PfS_ii'...
GPGPU-Sim PTX: Finding immediate postdominators for '_Z4Fan1PfS_ii'...
GPGPU-Sim PTX: pre-decoding instructions for '_Z4Fan1PfS_ii'...
GPGPU-Sim PTX: reconvergence points for _Z4Fan1PfS_ii...
GPGPU-Sim PTX:  1 (potential) branch divergence @  PC=0x068 (_1.ptx:44) @%p1 bra BB0_2;
GPGPU-Sim PTX:    immediate post dominator      @ 
GPGPU-Sim PTX: ... end of reconvergence points for _Z4Fan1PfS_ii
GPGPU-Sim PTX: ... done pre-decoding instructions for '_Z4Fan1PfS_ii'.
GPGPU-Sim PTX: instruction assembly for function '_Z4Fan2PfS_S_iii'...   done.
GPGPU-Sim PTX: finding reconvergence points for '_Z4Fan2PfS_S_iii'...
GPGPU-Sim PTX: Finding dominators for '_Z4Fan2PfS_S_iii'...
GPGPU-Sim PTX: Finding immediate dominators for '_Z4Fan2PfS_S_iii'...
GPGPU-Sim PTX: Finding postdominators for '_Z4Fan2PfS_S_iii'...
GPGPU-Sim PTX: Finding immediate postdominators for '_Z4Fan2PfS_S_iii'...
GPGPU-Sim PTX: pre-decoding instructions for '_Z4Fan2PfS_S_iii'...
GPGPU-Sim PTX: reconvergence points for _Z4Fan2PfS_S_iii...
GPGPU-Sim PTX:  1 (potential) branch divergence @  PC=0x1b8 (_1.ptx:119) @%p1 bra BB1_3;
GPGPU-Sim PTX:    immediate post dominator      @ 
GPGPU-Sim PTX:  2 (potential) branch divergence @  PC=0x200 (_1.ptx:131) @%p2 bra BB1_3;
GPGPU-Sim PTX:    immediate post dominator      @ 
GPGPU-Sim PTX:  3 (potential) branch divergence @  PC=0x2b8 (_1.ptx:158) @%p3 bra BB1_4;
GPGPU-Sim PTX:    immediate post dominator      @ 
GPGPU-Sim PTX: ... end of reconvergence points for _Z4Fan2PfS_S_iii
GPGPU-Sim PTX: ... done pre-decoding instructions for '_Z4Fan2PfS_S_iii'.
GPGPU-Sim PTX: finished parsing EMBEDDED .ptx file _1.ptx
Adding _cuobjdump_3.ptx with cubin handle 1
GPGPU-Sim PTX: extracting embedded .ptx to temporary file "_ptx_Vx6p32"
Running: cat _ptx_Vx6p32 | sed 's/.version 1.5/.version 1.4/' | sed 's/, texmode_independent//' | sed 's/\(\.extern \.const\[1\] .b8 \w\+\)\[\]/\1\[1\]/' | sed 's/const\[.\]/const\[0\]/g' > _ptx2_wUpze5
GPGPU-Sim PTX: generating ptxinfo using "$CUDA_INSTALL_PATH/bin/ptxas --gpu-name=sm_20 -v _ptx2_wUpze5 --output-file  /dev/null 2> _ptx_Vx6p32info"
GPGPU-Sim PTX: Kernel '_Z4Fan1PfS_ii' : regs=12, lmem=0, smem=0, cmem=64
GPGPU-Sim PTX: Kernel '_Z4Fan2PfS_S_iii' : regs=12, lmem=0, smem=0, cmem=68
GPGPU-Sim PTX: removing ptxinfo using "rm -f _ptx_Vx6p32 _ptx2_wUpze5 _ptx_Vx6p32info"
GPGPU-Sim PTX: loading globals with explicit initializers... 
GPGPU-Sim PTX: finished loading globals (0 bytes total).
GPGPU-Sim PTX: loading constants with explicit initializers...  done.
GPGPU-Sim PTX: __cudaRegisterFunction _Z4Fan1PfS_ii : hostFun 0x0x402067, fat_cubin_handle = 1
WG size of kernel 1 = 512, WG size of kernel 2= 4 X 4
Create matrix internally in parse, size = 16 

GPGPU-Sim PTX: cudaLaunch for 0x0x402067 (mode=performance simulation) on stream 0
GPGPU-Sim PTX: pushing kernel '_Z4Fan1PfS_ii' to stream 0, gridDim= (1,1,1) blockDim = (512,1,1) 
kernel '_Z4Fan1PfS_ii' transfer to GPU hardware scheduler
GPGPU-Sim uArch: Shader 1 bind to kernel 1 '_Z4Fan1PfS_ii'
GPGPU-Sim uArch: CTA/core = 3, limited by: threads
GPGPU-Sim uArch: core:  1, cta: 0 initialized @(1,0)
GPGPU-Sim uArch: cycles simulated: 500  inst.: 0 (ipc= 0.0) sim_rate=0 (inst/sec) elapsed = 0:0:00:01 / Fri Feb  1 22:49:12 2019
GPGPU-Sim uArch: Shader 1 finished CTA #0 (2018,0), 0 CTAs running
GPGPU-Sim uArch: Shader 1 empty (release kernel 1 '_Z4Fan1PfS_ii').
GPGPU-Sim uArch: GPU detected kernel '_Z4Fan1PfS_ii' finished on shader 1.
kernel_name = _Z4Fan1PfS_ii 
kernel_launch_uid = 1 
gpu_sim_cycle = 2019
gpu_sim_insn = 7543
gpu_ipc =       3.7360
gpu_tot_sim_cycle = 2019
gpu_tot_sim_insn = 7543
gpu_tot_ipc =       3.7360
gpu_tot_issued_cta = 0
gpu_stall_dramfull = 0
gpu_stall_icnt2sh    = 0
gpu_total_sim_rate=7543

========= Core cache stats =========
L1I_cache:
	L1I_total_cache_accesses = 161
	L1I_total_cache_misses = 18
	L1I_total_cache_miss_rate = 0.1118
	L1I_total_cache_pending_hits = 0
	L1I_total_cache_reservation_fails = 0
L1D_cache:
	L1D_cache_core[0]: Access = 0, Miss = 0, Miss_rate = -nan, Pending_hits = 0, Reservation_fails = 0
	L1D_cache_core[1]: Access = 17, Miss = 16, Miss_rate = 0.941, Pending_hits = 1, Reservation_fails = 0
	L1D_cache_core[2]: Access = 0, Miss = 0, Miss_rate = -nan, Pending_hits = 0, Reservation_fails = 0
	L1D_cache_core[3]: Access = 0, Miss = 0, Miss_rate = -nan, Pending_hits = 0, Reservation_fails = 0
	L1D_cache_core[4]: Access = 0, Miss = 0, Miss_rate = -nan, Pending_hits = 0, Reservation_fails = 0
	L1D_cache_core[5]: Access = 0, Miss = 0, Miss_rate = -nan, Pending_hits = 0, Reservation_fails = 0
	L1D_cache_core[6]: Access = 0, Miss = 0, Miss_rate = -nan, Pending_hits = 0, Reservation_fails = 0
	L1D_cache_core[7]: Access = 0, Miss = 0, Miss_rate = -nan, Pending_hits = 0, Reservation_fails = 0
	L1D_cache_core[8]: Access = 0, Miss = 0, Miss_rate = -nan, Pending_hits = 0, Reservation_fails = 0
	L1D_cache_core[9]: Access = 0, Miss = 0, Miss_rate = -nan, Pending_hits = 0, Reservation_fails = 0
	L1D_cache_core[10]: Access = 0, Miss = 0, Miss_rate = -nan, Pending_hits = 0, Reservation_fails = 0
	L1D_cache_core[11]: Access = 0, Miss = 0, Miss_rate = -nan, Pending_hits = 0, Reservation_fails = 0
	L1D_cache_core[12]: Access = 0, Miss = 0, Miss_rate = -nan, Pending_hits = 0, Reservation_fails = 0
	L1D_cache_core[13]: Access = 0, Miss = 0, Miss_rate = -nan, Pending_hits = 0, Reservation_fails = 0
	L1D_cache_core[14]: Access = 0, Miss = 0, Miss_rate = -nan, Pending_hits = 0, Reservation_fails = 0
	L1D_total_cache_accesses = 17
	L1D_total_cache_misses = 16
	L1D_total_cache_miss_rate = 0.9412
	L1D_total_cache_pending_hits = 1
	L1D_total_cache_reservation_fails = 0
	L1D_cache_data_port_util = 0.000
	L1D_cache_fill_port_util = 0.004
L1C_cache:
	L1C_total_cache_accesses = 66
	L1C_total_cache_misses = 32
	L1C_total_cache_miss_rate = 0.4848
	L1C_total_cache_pending_hits = 0
	L1C_total_cache_reservation_fails = 253
L1T_cache:
	L1T_total_cache_accesses = 0
	L1T_total_cache_misses = 0
	L1T_total_cache_pending_hits = 0
	L1T_total_cache_reservation_fails = 0

Total_core_cache_stats:
	Total_core_cache_stats_breakdown[GLOBAL_ACC_R][HIT_RESERVED] = 1
	Total_core_cache_stats_breakdown[GLOBAL_ACC_R][MISS] = 8
	Total_core_cache_stats_breakdown[CONST_ACC_R][HIT] = 34
	Total_core_cache_stats_breakdown[CONST_ACC_R][MISS] = 32
	Total_core_cache_stats_breakdown[CONST_ACC_R][RESERVATION_FAIL] = 253
	Total_core_cache_stats_breakdown[GLOBAL_ACC_W][MISS] = 8
	Total_core_cache_stats_breakdown[INST_ACC_R][HIT] = 143
	Total_core_cache_stats_breakdown[INST_ACC_R][MISS] = 18
Shader 0 warp_id issue ditsribution:
warp_id:

distro:

gpgpu_n_tot_thrd_icount = 8480
gpgpu_n_tot_w_icount = 265
gpgpu_n_stall_shd_mem = 267
gpgpu_n_mem_read_local = 0
gpgpu_n_mem_write_local = 0
gpgpu_n_mem_read_global = 8
gpgpu_n_mem_write_global = 8
gpgpu_n_mem_texture = 0
gpgpu_n_mem_const = 1
gpgpu_n_load_insn  = 30
gpgpu_n_store_insn = 15
gpgpu_n_shmem_insn = 0
gpgpu_n_tex_insn = 0
gpgpu_n_const_mem_insn = 0
gpgpu_n_param_mem_insn = 2078
gpgpu_n_shmem_bkconflict = 0
gpgpu_n_cache_bkconflict = 0
gpgpu_n_intrawarp_mshr_merge = 0
gpgpu_n_cmem_portconflict = 253
gpgpu_stall_shd_mem[c_mem][bk_conf] = 253
gpgpu_stall_shd_mem[c_mem][mshr_rc] = 0
gpgpu_stall_shd_mem[c_mem][icnt_rc] = 0
gpgpu_stall_shd_mem[c_mem][data_port_stall] = 0
gpgpu_stall_shd_mem[t_mem][mshr_rc] = 0
gpgpu_stall_shd_mem[t_mem][icnt_rc] = 0
gpgpu_stall_shd_mem[t_mem][data_port_stall] = 0
gpgpu_stall_shd_mem[s_mem][bk_conf] = 0
gpgpu_stall_shd_mem[gl_mem][bk_conf] = 0
gpgpu_stall_shd_mem[gl_mem][coal_stall] = 14
gpgpu_stall_shd_mem[gl_mem][data_port_stall] = 0
gpgpu_stall_shd_mem[g_mem_ld][mshr_rc] = 0
gpgpu_stall_shd_mem[g_mem_ld][icnt_rc] = 0
gpgpu_stall_shd_mem[g_mem_ld][wb_icnt_rc] = 0
gpgpu_stall_shd_mem[g_mem_ld][wb_rsrv_fail] = 0
gpgpu_stall_shd_mem[g_mem_st][mshr_rc] = 0
gpgpu_stall_shd_mem[g_mem_st][icnt_rc] = 0
gpgpu_stall_shd_mem[g_mem_st][wb_icnt_rc] = 0
gpgpu_stall_shd_mem[g_mem_st][wb_rsrv_fail] = 0
gpgpu_stall_shd_mem[l_mem_ld][mshr_rc] = 0
gpgpu_stall_shd_mem[l_mem_ld][icnt_rc] = 0
gpgpu_stall_shd_mem[l_mem_ld][wb_icnt_rc] = 0
gpgpu_stall_shd_mem[l_mem_ld][wb_rsrv_fail] = 0
gpgpu_stall_shd_mem[l_mem_st][mshr_rc] = 0
gpgpu_stall_shd_mem[l_mem_st][icnt_rc] = 0
gpgpu_stall_shd_mem[l_mem_ld][wb_icnt_rc] = 0
gpgpu_stall_shd_mem[l_mem_ld][wb_rsrv_fail] = 0
gpu_reg_bank_conflict_stalls = 0
Warp Occupancy Distribution:
Stall:286	W0_Idle:2751	W0_Scoreboard:764	W1:0	W2:0	W3:0	W4:0	W5:0	W6:0	W7:0	W8:0	W9:0	W10:0	W11:0	W12:0	W13:0	W14:0	W15:25	W16:0	W17:1	W18:0	W19:0	W20:0	W21:0	W22:0	W23:0	W24:0	W25:0	W26:0	W27:0	W28:0	W29:0	W30:0	W31:0	W32:239
traffic_breakdown_coretomem[CONST_ACC_R] = 8 {8:1,}
traffic_breakdown_coretomem[GLOBAL_ACC_R] = 64 {8:8,}
traffic_breakdown_coretomem[GLOBAL_ACC_W] = 992 {40:1,136:7,}
traffic_breakdown_coretomem[INST_ACC_R] = 24 {8:3,}
traffic_breakdown_memtocore[CONST_ACC_R] = 72 {72:1,}
traffic_breakdown_memtocore[GLOBAL_ACC_R] = 1088 {136:8,}
traffic_breakdown_memtocore[GLOBAL_ACC_W] = 64 {8:8,}
traffic_breakdown_memtocore[INST_ACC_R] = 408 {136:3,}
maxmrqlatency = 34 
maxdqlatency = 0 
maxmflatency = 316 
averagemflatency = 287 
max_icnt2mem_latency = 45 
max_icnt2sh_latency = 2018 
mrq_lat_table:12 	1 	0 	7 	4 	4 	0 	0 	0 	0 	0 	0 	0 	0 	0 	0 	0 	0 	0 	0 	0 	0 	0 	0 	0 	0 	0 	0 	0 	0 	0 	0 	
dq_lat_table:0 	0 	0 	0 	0 	0 	0 	0 	0 	0 	0 	0 	0 	0 	0 	0 	0 	0 	0 	0 	0 	0 	0 	0 	0 	0 	0 	0 	0 	0 	0 	0 	
mf_lat_table:0 	0 	0 	0 	0 	0 	0 	0 	17 	0 	0 	0 	0 	0 	0 	0 	0 	0 	0 	0 	0 	0 	0 	0 	0 	0 	0 	0 	0 	0 	0 	0 	
icnt2mem_lat_table:0 	0 	0 	13 	3 	4 	0 	0 	0 	0 	0 	0 	0 	0 	0 	0 	0 	0 	0 	0 	0 	0 	0 	0 	
icnt2sh_lat_table:0 	0 	0 	3 	4 	2 	0 	0 	0 	0 	8 	0 	0 	0 	0 	0 	0 	0 	0 	0 	0 	0 	0 	0 	
mf_lat_pw_table:0 	0 	0 	0 	0 	0 	0 	0 	2 	0 	0 	0 	0 	0 	0 	0 	0 	0 	0 	0 	0 	0 	0 	0 	0 	0 	0 	0 	0 	0 	0 	0 	
maximum concurrent accesses to same row:
dram[0]:         1         0         0         0         0         0         0         0         0         0         0         0         0         0         0         0 
dram[1]:         0         0         0         0         0         0         0         0         0         0         0         0         0         0         0         0 
dram[2]:         0         0         0         0         0         0         0         0         0         0         0         0         0         0         0         0 
dram[3]:         0         0         0         0         0         0         0         0         0         0         0         0         0         0         0         0 
dram[4]:         0         0         0         0         0         0         0         0         0         0         0         0         0         0         0         0 
dram[5]:         0         0         0         0         0         0         0         0         0         0         0         0         0         0         0         0 
maximum service time to same row:
dram[0]:       359         0         0         0      1558         0         0         0         0         0         0         0         0         0         0         0 
dram[1]:      1265         0         0         0      1568         0         0         0         0         0         0         0         0         0         0         0 
dram[2]:         0         0         0         0      1564      1968         0         0         0         0         0         0         0         0         0         0 
dram[3]:         0         0         0         0      1560      1956         0         0         0         0         0         0         0         0         0         0 
dram[4]:         0         0         0         0         0      1944         0         0         0         0         0         0         0         0         0         0 
dram[5]:         0         0         0         0         0      1932         0         0         0         0         0         0         0         0         0         0 
average row accesses per activate:
dram[0]:  1.000000      -nan      -nan      -nan  2.000000      -nan      -nan      -nan      -nan      -nan      -nan      -nan      -nan      -nan      -nan      -nan 
dram[1]:  1.000000      -nan      -nan      -nan  2.000000      -nan      -nan      -nan      -nan      -nan      -nan      -nan      -nan      -nan      -nan      -nan 
dram[2]:      -nan      -nan      -nan      -nan  2.000000  4.000000      -nan      -nan      -nan      -nan      -nan      -nan      -nan      -nan      -nan      -nan 
dram[3]:      -nan      -nan      -nan      -nan  2.000000  4.000000      -nan      -nan      -nan      -nan      -nan      -nan      -nan      -nan      -nan      -nan 
dram[4]:      -nan      -nan      -nan      -nan      -nan  4.000000      -nan      -nan      -nan      -nan      -nan      -nan      -nan      -nan      -nan      -nan 
dram[5]:      -nan      -nan      -nan      -nan      -nan  4.000000      -nan      -nan      -nan      -nan      -nan      -nan      -nan      -nan      -nan      -nan 
average row locality = 28/12 = 2.333333
number of total memory accesses made:
dram[0]:         0         0         0         0         0         0         0         0         0         0         0         0         0         0         0         0 
dram[1]:         0         0         0         0         0         0         0         0         0         0         0         0         0         0         0         0 
dram[2]:         0         0         0         0         0         0         0         0         0         0         0         0         0         0         0         0 
dram[3]:         0         0         0         0         0         0         0         0         0         0         0         0         0         0         0         0 
dram[4]:         0         0         0         0         0         0         0         0         0         0         0         0         0         0         0         0 
dram[5]:         0         0         0         0         0         0         0         0         0         0         0         0         0         0         0         0 
total accesses: 0
min_bank_accesses = 0!
min_chip_accesses = 0!
number of total read accesses:
dram[0]:         3         0         0         0         2         0         0         0         0         0         0         0         0         0         0         0 
dram[1]:         1         0         0         0         2         0         0         0         0         0         0         0         0         0         0         0 
dram[2]:         0         0         0         0         2         2         0         0         0         0         0         0         0         0         0         0 
dram[3]:         0         0         0         0         2         2         0         0         0         0         0         0         0         0         0         0 
dram[4]:         0         0         0         0         0         2         0         0         0         0         0         0         0         0         0         0 
dram[5]:         0         0         0         0         0         2         0         0         0         0         0         0         0         0         0         0 
total reads: 20
min_bank_accesses = 0!
chip skew: 5/2 = 2.50
number of total write accesses:
dram[0]:         0         0         0         0         0         0         0         0         0         0         0         0         0         0         0         0 
dram[1]:         0         0         0         0         0         0         0         0         0         0         0         0         0         0         0         0 
dram[2]:         0         0         0         0         0         2         0         0         0         0         0         0         0         0         0         0 
dram[3]:         0         0         0         0         0         2         0         0         0         0         0         0         0         0         0         0 
dram[4]:         0         0         0         0         0         2         0         0         0         0         0         0         0         0         0         0 
dram[5]:         0         0         0         0         0         2         0         0         0         0         0         0         0         0         0         0 
total reads: 8
min_bank_accesses = 0!
min_chip_accesses = 0!
average mf latency per bank:
dram[0]:         95    none      none      none         280    none      none      none      none      none      none      none      none      none      none      none  
dram[1]:          0    none      none      none         301    none      none      none      none      none      none      none      none      none      none      none  
dram[2]:     none      none      none      none         288       151    none      none      none      none      none      none      none      none      none      none  
dram[3]:     none      none      none      none         296       147    none      none      none      none      none      none      none      none      none      none  
dram[4]:     none      none      none      none      none         142    none      none      none      none      none      none      none      none      none      none  
dram[5]:     none      none      none      none      none         137    none      none      none      none      none      none      none      none      none      none  
maximum mf latency per bank:
dram[0]:        285         0         0         0       285         0         0         0         0         0         0         0         0         0         0         0
dram[1]:          0         0         0         0       310         0         0         0         0         0         0         0         0         0         0         0
dram[2]:          0         0         0         0       300       316         0         0         0         0         0         0         0         0         0         0
dram[3]:          0         0         0         0       308       309         0         0         0         0         0         0         0         0         0         0
dram[4]:          0         0         0         0         0       299         0         0         0         0         0         0         0         0         0         0
dram[5]:          0         0         0         0         0       289         0         0         0         0         0         0         0         0         0         0
Memory Partition 0: 
Cache L2_bank_000:
MSHR contents

Cache L2_bank_001:
MSHR contents

In Dram Latency Queue (total = 0): 
DRAM[0]: 16 bks, busW=4 BL=8 CL=12, tRRD=2 tCCD=6, tRCD=12 tRAS=28 tRP=12 tRC=40
n_cmd=2019 n_nop=2003 n_act=4 n_pre=2 n_req=5 n_rd=10 n_write=0 bw_util=0.009906
n_activity=184 dram_eff=0.1087
bk0: 6a 1947i bk1: 0a 2017i bk2: 0a 2020i bk3: 0a 2020i bk4: 4a 1997i bk5: 0a 2018i bk6: 0a 2018i bk7: 0a 2018i bk8: 0a 2019i bk9: 0a 2019i bk10: 0a 2019i bk11: 0a 2019i bk12: 0a 2019i bk13: 0a 2019i bk14: 0a 2019i bk15: 0a 2019i 
dram_util_bins: 0 0 0 0 0 0 0 0 0 0
dram_eff_bins: 0 0 0 0 0 0 0 0 0 0
mrqq: max=1 avg=0.000990589
Memory Partition 1: 
Cache L2_bank_002:
MSHR contents

Cache L2_bank_003:
MSHR contents

In Dram Latency Queue (total = 0): 
DRAM[1]: 16 bks, busW=4 BL=8 CL=12, tRRD=2 tCCD=6, tRCD=12 tRAS=28 tRP=12 tRC=40
n_cmd=2019 n_nop=2011 n_act=2 n_pre=0 n_req=3 n_rd=6 n_write=0 bw_util=0.005944
n_activity=80 dram_eff=0.15
bk0: 2a 2003i bk1: 0a 2019i bk2: 0a 2020i bk3: 0a 2020i bk4: 4a 1997i bk5: 0a 2018i bk6: 0a 2018i bk7: 0a 2018i bk8: 0a 2019i bk9: 0a 2019i bk10: 0a 2019i bk11: 0a 2019i bk12: 0a 2019i bk13: 0a 2019i bk14: 0a 2019i bk15: 0a 2019i 
dram_util_bins: 0 0 0 0 0 0 0 0 0 0
dram_eff_bins: 0 0 0 0 0 0 0 0 0 0
mrqq: max=1 avg=0.00693413
Memory Partition 2: 
Cache L2_bank_004:
MSHR contents

Cache L2_bank_005:
MSHR contents
MSHR: tag=0x80000000, atomic=0 1 entries : 0x7fbde4054a50 :  mf: uid=   505, sid01:w00, part=2, addr=0x80000040, load , size=32, unknown  status = IN_PARTITION_DRAM (2018), 

In Dram Latency Queue (total = 0): 
DRAM[2]: 16 bks, busW=4 BL=8 CL=12, tRRD=2 tCCD=6, tRCD=12 tRAS=28 tRP=12 tRC=40
n_cmd=2019 n_nop=2006 n_act=2 n_pre=0 n_req=6 n_rd=8 n_write=3 bw_util=0.0109
n_activity=91 dram_eff=0.2418
bk0: 0a 2019i bk1: 0a 2020i bk2: 0a 2020i bk3: 0a 2020i bk4: 4a 1997i bk5: 4a 1967i bk6: 0a 2017i bk7: 0a 2018i bk8: 0a 2018i bk9: 0a 2019i bk10: 0a 2019i bk11: 0a 2019i bk12: 0a 2019i bk13: 0a 2019i bk14: 0a 2019i bk15: 0a 2019i 
dram_util_bins: 0 0 0 0 0 0 0 0 0 0
dram_eff_bins: 0 0 0 0 0 0 0 0 0 0
mrqq: max=3 avg=0.0391283
Memory Partition 3: 
Cache L2_bank_006:
MSHR contents

Cache L2_bank_007:
MSHR contents
MSHR: tag=0x80000100, atomic=0 1 entries : 0x7fbde4055750 :  mf: uid=   503, sid01:w00, part=3, addr=0x80000100, load , size=128, unknown  status = IN_PARTITION_DRAM (2009), 

In Dram Latency Queue (total = 0): 
DRAM[3]: 16 bks, busW=4 BL=8 CL=12, tRRD=2 tCCD=6, tRCD=12 tRAS=28 tRP=12 tRC=40
n_cmd=2019 n_nop=2005 n_act=2 n_pre=0 n_req=6 n_rd=8 n_write=4 bw_util=0.01189
n_activity=103 dram_eff=0.233
bk0: 0a 2019i bk1: 0a 2020i bk2: 0a 2020i bk3: 0a 2020i bk4: 4a 1997i bk5: 4a 1964i bk6: 0a 2017i bk7: 0a 2018i bk8: 0a 2018i bk9: 0a 2019i bk10: 0a 2019i bk11: 0a 2019i bk12: 0a 2019i bk13: 0a 2019i bk14: 0a 2019i bk15: 0a 2019i 
dram_util_bins: 0 0 0 0 0 0 0 0 0 0
dram_eff_bins: 0 0 0 0 0 0 0 0 0 0
mrqq: max=3 avg=0.0376424
Memory Partition 4: 
Cache L2_bank_008:
MSHR contents

Cache L2_bank_009:
MSHR contents

In Dram Latency Queue (total = 0): 
DRAM[4]: 16 bks, busW=4 BL=8 CL=12, tRRD=2 tCCD=6, tRCD=12 tRAS=28 tRP=12 tRC=40
n_cmd=2019 n_nop=2010 n_act=1 n_pre=0 n_req=4 n_rd=4 n_write=4 bw_util=0.007925
n_activity=65 dram_eff=0.2462
bk0: 0a 2019i bk1: 0a 2020i bk2: 0a 2020i bk3: 0a 2020i bk4: 0a 2020i bk5: 4a 1965i bk6: 0a 2018i bk7: 0a 2018i bk8: 0a 2018i bk9: 0a 2018i bk10: 0a 2018i bk11: 0a 2019i bk12: 0a 2019i bk13: 0a 2019i bk14: 0a 2019i bk15: 0a 2019i 
dram_util_bins: 0 0 0 0 0 0 0 0 0 0
dram_eff_bins: 0 0 0 0 0 0 0 0 0 0
mrqq: max=3 avg=0.0307083
Memory Partition 5: 
Cache L2_bank_010:
MSHR contents

Cache L2_bank_011:
MSHR contents

In Dram Latency Queue (total = 0): 
DRAM[5]: 16 bks, busW=4 BL=8 CL=12, tRRD=2 tCCD=6, tRCD=12 tRAS=28 tRP=12 tRC=40
n_cmd=2019 n_nop=2010 n_act=1 n_pre=0 n_req=4 n_rd=4 n_write=4 bw_util=0.007925
n_activity=65 dram_eff=0.2462
bk0: 0a 2019i bk1: 0a 2020i bk2: 0a 2020i bk3: 0a 2020i bk4: 0a 2020i bk5: 4a 1965i bk6: 0a 2018i bk7: 0a 2018i bk8: 0a 2018i bk9: 0a 2018i bk10: 0a 2018i bk11: 0a 2019i bk12: 0a 2019i bk13: 0a 2019i bk14: 0a 2019i bk15: 0a 2019i 
dram_util_bins: 0 0 0 0 0 0 0 0 0 0
dram_eff_bins: 0 0 0 0 0 0 0 0 0 0
mrqq: max=3 avg=0.0307083

========= L2 cache stats =========
L2_cache_bank[0]: Access = 5, Miss = 5, Miss_rate = 1.000, Pending_hits = 0, Reservation_fails = 0
L2_cache_bank[1]: Access = 0, Miss = 0, Miss_rate = -nan, Pending_hits = 0, Reservation_fails = 0
L2_cache_bank[2]: Access = 3, Miss = 3, Miss_rate = 1.000, Pending_hits = 0, Reservation_fails = 0
L2_cache_bank[3]: Access = 0, Miss = 0, Miss_rate = -nan, Pending_hits = 0, Reservation_fails = 0
L2_cache_bank[4]: Access = 2, Miss = 2, Miss_rate = 1.000, Pending_hits = 0, Reservation_fails = 0
L2_cache_bank[5]: Access = 2, Miss = 2, Miss_rate = 1.000, Pending_hits = 0, Reservation_fails = 0
L2_cache_bank[6]: Access = 2, Miss = 2, Miss_rate = 1.000, Pending_hits = 0, Reservation_fails = 0
L2_cache_bank[7]: Access = 2, Miss = 2, Miss_rate = 1.000, Pending_hits = 0, Reservation_fails = 0
L2_cache_bank[8]: Access = 0, Miss = 0, Miss_rate = -nan, Pending_hits = 0, Reservation_fails = 0
L2_cache_bank[9]: Access = 2, Miss = 2, Miss_rate = 1.000, Pending_hits = 0, Reservation_fails = 0
L2_cache_bank[10]: Access = 0, Miss = 0, Miss_rate = -nan, Pending_hits = 0, Reservation_fails = 0
L2_cache_bank[11]: Access = 2, Miss = 2, Miss_rate = 1.000, Pending_hits = 0, Reservation_fails = 0
L2_total_cache_accesses = 20
L2_total_cache_misses = 20
L2_total_cache_miss_rate = 1.0000
L2_total_cache_pending_hits = 0
L2_total_cache_reservation_fails = 0
L2_total_cache_breakdown:
	L2_cache_stats_breakdown[GLOBAL_ACC_R][MISS] = 8
	L2_cache_stats_breakdown[CONST_ACC_R][MISS] = 1
	L2_cache_stats_breakdown[GLOBAL_ACC_W][MISS] = 8
	L2_cache_stats_breakdown[INST_ACC_R][MISS] = 3
L2_cache_data_port_util = 0.000
L2_cache_fill_port_util = 0.003

icnt_total_pkts_mem_to_simt=66
icnt_total_pkts_simt_to_mem=49
LD_mem_lat_dist  0 0 0 0 0 0 0 0 0 0 0 0 0 0 0 0 0 0 0 0 0 0 0 0 0 0 0
ST_mem_lat_dist  0 0 0 0 0 0 0 0 0 0 0 0 0 0 0 0 0 0 0 0 0 0 0 0 0 0 0
----------------------------Interconnect-DETAILS--------------------------------
Class 0:
Packet latency average = 12.575
	minimum = 6
	maximum = 38
Network latency average = 11.725
	minimum = 6
	maximum = 38
Slowest packet = 20
Flit latency average = 11.5217
	minimum = 6
	maximum = 34
Slowest flit = 50
Fragmentation average = 0
	minimum = 0
	maximum = 0
Injected packet rate average = 0.00073377
	minimum = 0 (at node 0)
	maximum = 0.00990589 (at node 1)
Accepted packet rate average = 0.00073377
	minimum = 0 (at node 0)
	maximum = 0.00990589 (at node 1)
Injected flit rate average = 0.00210959
	minimum = 0 (at node 0)
	maximum = 0.0242694 (at node 1)
Accepted flit rate average= 0.00210959
	minimum = 0 (at node 0)
	maximum = 0.0326895 (at node 1)
Injected packet length average = 2.875
Accepted packet length average = 2.875
Total in-flight flits = 0 (0 measured)
====== Overall Traffic Statistics ======
====== Traffic class 0 ======
Packet latency average = 12.575 (1 samples)
	minimum = 6 (1 samples)
	maximum = 38 (1 samples)
Network latency average = 11.725 (1 samples)
	minimum = 6 (1 samples)
	maximum = 38 (1 samples)
Flit latency average = 11.5217 (1 samples)
	minimum = 6 (1 samples)
	maximum = 34 (1 samples)
Fragmentation average = 0 (1 samples)
	minimum = 0 (1 samples)
	maximum = 0 (1 samples)
Injected packet rate average = 0.00073377 (1 samples)
	minimum = 0 (1 samples)
	maximum = 0.00990589 (1 samples)
Accepted packet rate average = 0.00073377 (1 samples)
	minimum = 0 (1 samples)
	maximum = 0.00990589 (1 samples)
Injected flit rate average = 0.00210959 (1 samples)
	minimum = 0 (1 samples)
	maximum = 0.0242694 (1 samples)
Accepted flit rate average = 0.00210959 (1 samples)
	minimum = 0 (1 samples)
	maximum = 0.0326895 (1 samples)
Injected packet size average = 2.875 (1 samples)
Accepted packet size average = 2.875 (1 samples)
Hops average = 1 (1 samples)
----------------------------END-of-Interconnect-DETAILS-------------------------


gpgpu_simulation_time = 0 days, 0 hrs, 0 min, 1 sec (1 sec)
gpgpu_simulation_rate = 7543 (inst/sec)
gpgpu_simulation_rate = 2019 (cycle/sec)
GPGPU-Sim: synchronize waiting for inactive GPU simulation
GPGPU-Sim API: Stream Manager State
GPGPU-Sim: detected inactive GPU simulation thread

GPGPU-Sim PTX: cudaLaunch for 0x0x40219f (mode=performance simulation) on stream 0
GPGPU-Sim PTX: pushing kernel '_Z4Fan2PfS_S_iii' to stream 0, gridDim= (4,4,1) blockDim = (4,4,1) 
kernel '_Z4Fan2PfS_S_iii' transfer to GPU hardware scheduler
GPGPU-Sim uArch: Shader 2 bind to kernel 2 '_Z4Fan2PfS_S_iii'
GPGPU-Sim uArch: CTA/core = 8, limited by: cta_limit
GPGPU-Sim uArch: core:  2, cta: 0 initialized @(1,2019)
GPGPU-Sim uArch: Shader 3 bind to kernel 2 '_Z4Fan2PfS_S_iii'
GPGPU-Sim uArch: core:  3, cta: 0 initialized @(1,2019)
GPGPU-Sim uArch: Shader 4 bind to kernel 2 '_Z4Fan2PfS_S_iii'
GPGPU-Sim uArch: core:  4, cta: 0 initialized @(1,2019)
GPGPU-Sim uArch: Shader 5 bind to kernel 2 '_Z4Fan2PfS_S_iii'
GPGPU-Sim uArch: core:  5, cta: 0 initialized @(1,2019)
GPGPU-Sim uArch: Shader 6 bind to kernel 2 '_Z4Fan2PfS_S_iii'
GPGPU-Sim uArch: core:  6, cta: 0 initialized @(1,2019)
GPGPU-Sim uArch: Shader 7 bind to kernel 2 '_Z4Fan2PfS_S_iii'
GPGPU-Sim uArch: core:  7, cta: 0 initialized @(1,2019)
GPGPU-Sim uArch: Shader 8 bind to kernel 2 '_Z4Fan2PfS_S_iii'
GPGPU-Sim uArch: core:  8, cta: 0 initialized @(1,2019)
GPGPU-Sim uArch: Shader 9 bind to kernel 2 '_Z4Fan2PfS_S_iii'
GPGPU-Sim uArch: core:  9, cta: 0 initialized @(1,2019)
GPGPU-Sim uArch: Shader 10 bind to kernel 2 '_Z4Fan2PfS_S_iii'
GPGPU-Sim uArch: core: 10, cta: 0 initialized @(1,2019)
GPGPU-Sim uArch: Shader 11 bind to kernel 2 '_Z4Fan2PfS_S_iii'
GPGPU-Sim uArch: core: 11, cta: 0 initialized @(1,2019)
GPGPU-Sim uArch: Shader 12 bind to kernel 2 '_Z4Fan2PfS_S_iii'
GPGPU-Sim uArch: core: 12, cta: 0 initialized @(1,2019)
GPGPU-Sim uArch: Shader 13 bind to kernel 2 '_Z4Fan2PfS_S_iii'
GPGPU-Sim uArch: core: 13, cta: 0 initialized @(1,2019)
GPGPU-Sim uArch: Shader 14 bind to kernel 2 '_Z4Fan2PfS_S_iii'
GPGPU-Sim uArch: core: 14, cta: 0 initialized @(1,2019)
GPGPU-Sim uArch: Shader 0 bind to kernel 2 '_Z4Fan2PfS_S_iii'
GPGPU-Sim uArch: core:  0, cta: 0 initialized @(1,2019)
GPGPU-Sim uArch: Shader 1 bind to kernel 2 '_Z4Fan2PfS_S_iii'
GPGPU-Sim uArch: core:  1, cta: 0 initialized @(1,2019)
GPGPU-Sim uArch: core:  2, cta: 1 initialized @(2,2019)
GPGPU-Sim uArch: cycles simulated: 2519  inst.: 10779 (ipc= 6.5) sim_rate=5389 (inst/sec) elapsed = 0:0:00:02 / Fri Feb  1 22:49:13 2019
GPGPU-Sim uArch: Shader 1 finished CTA #0 (1120,2019), 0 CTAs running
GPGPU-Sim uArch: Shader 1 empty (release kernel 2 '_Z4Fan2PfS_S_iii').
GPGPU-Sim uArch: Shader 2 finished CTA #1 (1244,2019), 1 CTAs running
GPGPU-Sim uArch: Shader 6 finished CTA #0 (1315,2019), 0 CTAs running
GPGPU-Sim uArch: Shader 6 empty (release kernel 2 '_Z4Fan2PfS_S_iii').
GPGPU-Sim uArch: Shader 7 finished CTA #0 (1326,2019), 0 CTAs running
GPGPU-Sim uArch: Shader 7 empty (release kernel 2 '_Z4Fan2PfS_S_iii').
GPGPU-Sim uArch: Shader 8 finished CTA #0 (1330,2019), 0 CTAs running
GPGPU-Sim uArch: Shader 8 empty (release kernel 2 '_Z4Fan2PfS_S_iii').
GPGPU-Sim uArch: Shader 10 finished CTA #0 (1333,2019), 0 CTAs running
GPGPU-Sim uArch: Shader 10 empty (release kernel 2 '_Z4Fan2PfS_S_iii').
GPGPU-Sim uArch: Shader 12 finished CTA #0 (1348,2019), 0 CTAs running
GPGPU-Sim uArch: Shader 12 empty (release kernel 2 '_Z4Fan2PfS_S_iii').
GPGPU-Sim uArch: Shader 11 finished CTA #0 (1350,2019), 0 CTAs running
GPGPU-Sim uArch: Shader 11 empty (release kernel 2 '_Z4Fan2PfS_S_iii').
GPGPU-Sim uArch: Shader 14 finished CTA #0 (1357,2019), 0 CTAs running
GPGPU-Sim uArch: Shader 14 empty (release kernel 2 '_Z4Fan2PfS_S_iii').
GPGPU-Sim uArch: Shader 0 finished CTA #0 (1366,2019), 0 CTAs running
GPGPU-Sim uArch: Shader 0 empty (release kernel 2 '_Z4Fan2PfS_S_iii').
GPGPU-Sim uArch: Shader 9 finished CTA #0 (1402,2019), 0 CTAs running
GPGPU-Sim uArch: Shader 9 empty (release kernel 2 '_Z4Fan2PfS_S_iii').
GPGPU-Sim uArch: Shader 13 finished CTA #0 (1420,2019), 0 CTAs running
GPGPU-Sim uArch: Shader 13 empty (release kernel 2 '_Z4Fan2PfS_S_iii').
GPGPU-Sim uArch: Shader 2 finished CTA #0 (1469,2019), 0 CTAs running
GPGPU-Sim uArch: Shader 2 empty (release kernel 2 '_Z4Fan2PfS_S_iii').
GPGPU-Sim uArch: Shader 4 finished CTA #0 (1495,2019), 0 CTAs running
GPGPU-Sim uArch: Shader 4 empty (release kernel 2 '_Z4Fan2PfS_S_iii').
GPGPU-Sim uArch: cycles simulated: 3519  inst.: 19065 (ipc= 7.7) sim_rate=6355 (inst/sec) elapsed = 0:0:00:03 / Fri Feb  1 22:49:14 2019
GPGPU-Sim uArch: Shader 3 finished CTA #0 (1522,2019), 0 CTAs running
GPGPU-Sim uArch: Shader 3 empty (release kernel 2 '_Z4Fan2PfS_S_iii').
GPGPU-Sim uArch: Shader 5 finished CTA #0 (1606,2019), 0 CTAs running
GPGPU-Sim uArch: Shader 5 empty (release kernel 2 '_Z4Fan2PfS_S_iii').
GPGPU-Sim uArch: GPU detected kernel '_Z4Fan2PfS_S_iii' finished on shader 5.
kernel_name = _Z4Fan2PfS_S_iii 
kernel_launch_uid = 2 
gpu_sim_cycle = 1607
gpu_sim_insn = 11522
gpu_ipc =       7.1699
gpu_tot_sim_cycle = 3626
gpu_tot_sim_insn = 19065
gpu_tot_ipc =       5.2579
gpu_tot_issued_cta = 0
gpu_stall_dramfull = 1
gpu_stall_icnt2sh    = 174
gpu_total_sim_rate=6355

========= Core cache stats =========
L1I_cache:
	L1I_total_cache_accesses = 674
	L1I_total_cache_misses = 83
	L1I_total_cache_miss_rate = 0.1231
	L1I_total_cache_pending_hits = 0
	L1I_total_cache_reservation_fails = 0
L1D_cache:
	L1D_cache_core[0]: Access = 10, Miss = 7, Miss_rate = 0.700, Pending_hits = 0, Reservation_fails = 0
	L1D_cache_core[1]: Access = 27, Miss = 19, Miss_rate = 0.704, Pending_hits = 1, Reservation_fails = 0
	L1D_cache_core[2]: Access = 23, Miss = 11, Miss_rate = 0.478, Pending_hits = 2, Reservation_fails = 0
	L1D_cache_core[3]: Access = 16, Miss = 8, Miss_rate = 0.500, Pending_hits = 0, Reservation_fails = 0
	L1D_cache_core[4]: Access = 16, Miss = 8, Miss_rate = 0.500, Pending_hits = 0, Reservation_fails = 0
	L1D_cache_core[5]: Access = 12, Miss = 6, Miss_rate = 0.500, Pending_hits = 0, Reservation_fails = 0
	L1D_cache_core[6]: Access = 10, Miss = 6, Miss_rate = 0.600, Pending_hits = 0, Reservation_fails = 0
	L1D_cache_core[7]: Access = 10, Miss = 7, Miss_rate = 0.700, Pending_hits = 0, Reservation_fails = 0
	L1D_cache_core[8]: Access = 10, Miss = 7, Miss_rate = 0.700, Pending_hits = 0, Reservation_fails = 0
	L1D_cache_core[9]: Access = 7, Miss = 5, Miss_rate = 0.714, Pending_hits = 0, Reservation_fails = 0
	L1D_cache_core[10]: Access = 10, Miss = 6, Miss_rate = 0.600, Pending_hits = 0, Reservation_fails = 0
	L1D_cache_core[11]: Access = 10, Miss = 7, Miss_rate = 0.700, Pending_hits = 0, Reservation_fails = 0
	L1D_cache_core[12]: Access = 10, Miss = 7, Miss_rate = 0.700, Pending_hits = 0, Reservation_fails = 0
	L1D_cache_core[13]: Access = 7, Miss = 5, Miss_rate = 0.714, Pending_hits = 0, Reservation_fails = 0
	L1D_cache_core[14]: Access = 10, Miss = 6, Miss_rate = 0.600, Pending_hits = 0, Reservation_fails = 0
	L1D_total_cache_accesses = 188
	L1D_total_cache_misses = 115
	L1D_total_cache_miss_rate = 0.6117
	L1D_total_cache_pending_hits = 3
	L1D_total_cache_reservation_fails = 0
	L1D_cache_data_port_util = 0.003
	L1D_cache_fill_port_util = 0.005
L1C_cache:
	L1C_total_cache_accesses = 214
	L1C_total_cache_misses = 107
	L1C_total_cache_miss_rate = 0.5000
	L1C_total_cache_pending_hits = 0
	L1C_total_cache_reservation_fails = 253
L1T_cache:
	L1T_total_cache_accesses = 0
	L1T_total_cache_misses = 0
	L1T_total_cache_pending_hits = 0
	L1T_total_cache_reservation_fails = 0

Total_core_cache_stats:
	Total_core_cache_stats_breakdown[GLOBAL_ACC_R][HIT] = 22
	Total_core_cache_stats_breakdown[GLOBAL_ACC_R][HIT_RESERVED] = 3
	Total_core_cache_stats_breakdown[GLOBAL_ACC_R][MISS] = 107
	Total_core_cache_stats_breakdown[CONST_ACC_R][HIT] = 107
	Total_core_cache_stats_breakdown[CONST_ACC_R][MISS] = 107
	Total_core_cache_stats_breakdown[CONST_ACC_R][RESERVATION_FAIL] = 253
	Total_core_cache_stats_breakdown[GLOBAL_ACC_W][HIT] = 48
	Total_core_cache_stats_breakdown[GLOBAL_ACC_W][MISS] = 8
	Total_core_cache_stats_breakdown[INST_ACC_R][HIT] = 591
	Total_core_cache_stats_breakdown[INST_ACC_R][MISS] = 83
Shader 0 warp_id issue ditsribution:
warp_id:
0, 
distro:
49, 
gpgpu_n_tot_thrd_icount = 35488
gpgpu_n_tot_w_icount = 1109
gpgpu_n_stall_shd_mem = 358
gpgpu_n_mem_read_local = 0
gpgpu_n_mem_write_local = 0
gpgpu_n_mem_read_global = 107
gpgpu_n_mem_write_global = 56
gpgpu_n_mem_texture = 0
gpgpu_n_mem_const = 15
gpgpu_n_load_insn  = 795
gpgpu_n_store_insn = 270
gpgpu_n_shmem_insn = 0
gpgpu_n_tex_insn = 0
gpgpu_n_const_mem_insn = 0
gpgpu_n_param_mem_insn = 4333
gpgpu_n_shmem_bkconflict = 0
gpgpu_n_cache_bkconflict = 0
gpgpu_n_intrawarp_mshr_merge = 0
gpgpu_n_cmem_portconflict = 253
gpgpu_stall_shd_mem[c_mem][bk_conf] = 253
gpgpu_stall_shd_mem[c_mem][mshr_rc] = 0
gpgpu_stall_shd_mem[c_mem][icnt_rc] = 0
gpgpu_stall_shd_mem[c_mem][data_port_stall] = 0
gpgpu_stall_shd_mem[t_mem][mshr_rc] = 0
gpgpu_stall_shd_mem[t_mem][icnt_rc] = 0
gpgpu_stall_shd_mem[t_mem][data_port_stall] = 0
gpgpu_stall_shd_mem[s_mem][bk_conf] = 0
gpgpu_stall_shd_mem[gl_mem][bk_conf] = 0
gpgpu_stall_shd_mem[gl_mem][coal_stall] = 105
gpgpu_stall_shd_mem[gl_mem][data_port_stall] = 0
gpgpu_stall_shd_mem[g_mem_ld][mshr_rc] = 0
gpgpu_stall_shd_mem[g_mem_ld][icnt_rc] = 0
gpgpu_stall_shd_mem[g_mem_ld][wb_icnt_rc] = 0
gpgpu_stall_shd_mem[g_mem_ld][wb_rsrv_fail] = 0
gpgpu_stall_shd_mem[g_mem_st][mshr_rc] = 0
gpgpu_stall_shd_mem[g_mem_st][icnt_rc] = 0
gpgpu_stall_shd_mem[g_mem_st][wb_icnt_rc] = 0
gpgpu_stall_shd_mem[g_mem_st][wb_rsrv_fail] = 0
gpgpu_stall_shd_mem[l_mem_ld][mshr_rc] = 0
gpgpu_stall_shd_mem[l_mem_ld][icnt_rc] = 0
gpgpu_stall_shd_mem[l_mem_ld][wb_icnt_rc] = 0
gpgpu_stall_shd_mem[l_mem_ld][wb_rsrv_fail] = 0
gpgpu_stall_shd_mem[l_mem_st][mshr_rc] = 0
gpgpu_stall_shd_mem[l_mem_st][icnt_rc] = 0
gpgpu_stall_shd_mem[l_mem_ld][wb_icnt_rc] = 0
gpgpu_stall_shd_mem[l_mem_ld][wb_rsrv_fail] = 0
gpu_reg_bank_conflict_stalls = 0
Warp Occupancy Distribution:
Stall:291	W0_Idle:36129	W0_Scoreboard:8085	W1:0	W2:0	W3:14	W4:46	W5:0	W6:0	W7:0	W8:0	W9:1	W10:0	W11:0	W12:134	W13:0	W14:0	W15:25	W16:649	W17:1	W18:0	W19:0	W20:0	W21:0	W22:0	W23:0	W24:0	W25:0	W26:0	W27:0	W28:0	W29:0	W30:0	W31:0	W32:239
traffic_breakdown_coretomem[CONST_ACC_R] = 120 {8:15,}
traffic_breakdown_coretomem[GLOBAL_ACC_R] = 856 {8:107,}
traffic_breakdown_coretomem[GLOBAL_ACC_W] = 4480 {40:32,72:1,136:23,}
traffic_breakdown_coretomem[INST_ACC_R] = 528 {8:66,}
traffic_breakdown_memtocore[CONST_ACC_R] = 1080 {72:15,}
traffic_breakdown_memtocore[GLOBAL_ACC_R] = 14552 {136:107,}
traffic_breakdown_memtocore[GLOBAL_ACC_W] = 448 {8:56,}
traffic_breakdown_memtocore[INST_ACC_R] = 8976 {136:66,}
maxmrqlatency = 34 
maxdqlatency = 0 
maxmflatency = 316 
averagemflatency = 163 
max_icnt2mem_latency = 45 
max_icnt2sh_latency = 3625 
mrq_lat_table:17 	1 	0 	7 	4 	4 	0 	0 	0 	0 	0 	0 	0 	0 	0 	0 	0 	0 	0 	0 	0 	0 	0 	0 	0 	0 	0 	0 	0 	0 	0 	0 	
dq_lat_table:0 	0 	0 	0 	0 	0 	0 	0 	0 	0 	0 	0 	0 	0 	0 	0 	0 	0 	0 	0 	0 	0 	0 	0 	0 	0 	0 	0 	0 	0 	0 	0 	
mf_lat_table:0 	0 	0 	0 	0 	0 	0 	160 	18 	0 	0 	0 	0 	0 	0 	0 	0 	0 	0 	0 	0 	0 	0 	0 	0 	0 	0 	0 	0 	0 	0 	0 	
icnt2mem_lat_table:0 	0 	0 	211 	27 	6 	0 	0 	0 	0 	0 	0 	0 	0 	0 	0 	0 	0 	0 	0 	0 	0 	0 	0 	
icnt2sh_lat_table:0 	0 	0 	52 	67 	3 	0 	0 	0 	0 	8 	48 	0 	0 	0 	0 	0 	0 	0 	0 	0 	0 	0 	0 	
mf_lat_pw_table:0 	0 	0 	0 	0 	0 	0 	3 	3 	0 	0 	0 	0 	0 	0 	0 	0 	0 	0 	0 	0 	0 	0 	0 	0 	0 	0 	0 	0 	0 	0 	0 	
maximum concurrent accesses to same row:
dram[0]:         1         0         0         0         0         0         0         0         0         0         0         0         0         0         0         0 
dram[1]:         0         0         0         0         0         0         0         0         0         0         0         0         0         0         0         0 
dram[2]:         0         0         0         0         0         0         0         0         0         0         0         0         0         0         0         0 
dram[3]:         0         0         0         0         0         0         0         0         0         0         0         0         0         0         0         0 
dram[4]:         0         0         0         0         0         0         0         0         0         0         0         0         0         0         0         0 
dram[5]:         0         0         0         0         0         0         0         0         0         0         0         0         0         0         0         0 
maximum service time to same row:
dram[0]:       359         0         0         0      1558         0         0         0         0         0         0         0         0         0         0         0 
dram[1]:      1265         0         0         0      1568         0         0         0         0         0         0         0         0         0         0         0 
dram[2]:       622         0         0         0      1564      1968         0         0         0         0         0         0         0         0         0         0 
dram[3]:      1250         0         0         0      1560      1956         0         0         0         0         0         0         0         0         0         0 
dram[4]:         0         0         0         0      1252      1944         0         0         0         0         0         0         0         0         0         0 
dram[5]:         0         0         0         0         0      1932         0         0         0         0         0         0         0         0         0         0 
average row accesses per activate:
dram[0]:  1.000000      -nan      -nan      -nan  2.000000      -nan      -nan      -nan      -nan      -nan      -nan      -nan      -nan      -nan      -nan      -nan 
dram[1]:  2.000000      -nan      -nan      -nan  2.000000      -nan      -nan      -nan      -nan      -nan      -nan      -nan      -nan      -nan      -nan      -nan 
dram[2]:  2.000000      -nan      -nan      -nan  2.000000  4.000000      -nan      -nan      -nan      -nan      -nan      -nan      -nan      -nan      -nan      -nan 
dram[3]:  1.000000      -nan      -nan      -nan  2.000000  4.000000      -nan      -nan      -nan      -nan      -nan      -nan      -nan      -nan      -nan      -nan 
dram[4]:      -nan      -nan      -nan      -nan  1.000000  4.000000      -nan      -nan      -nan      -nan      -nan      -nan      -nan      -nan      -nan      -nan 
dram[5]:      -nan      -nan      -nan      -nan      -nan  4.000000      -nan      -nan      -nan      -nan      -nan      -nan      -nan      -nan      -nan      -nan 
average row locality = 33/15 = 2.200000
number of total memory accesses made:
dram[0]:         0         0         0         0         0         0         0         0         0         0         0         0         0         0         0         0 
dram[1]:         0         0         0         0         0         0         0         0         0         0         0         0         0         0         0         0 
dram[2]:         0         0         0         0         0         0         0         0         0         0         0         0         0         0         0         0 
dram[3]:         0         0         0         0         0         0         0         0         0         0         0         0         0         0         0         0 
dram[4]:         0         0         0         0         0         0         0         0         0         0         0         0         0         0         0         0 
dram[5]:         0         0         0         0         0         0         0         0         0         0         0         0         0         0         0         0 
total accesses: 0
min_bank_accesses = 0!
min_chip_accesses = 0!
number of total read accesses:
dram[0]:         3         0         0         0         2         0         0         0         0         0         0         0         0         0         0         0 
dram[1]:         2         0         0         0         2         0         0         0         0         0         0         0         0         0         0         0 
dram[2]:         2         0         0         0         2         2         0         0         0         0         0         0         0         0         0         0 
dram[3]:         1         0         0         0         2         2         0         0         0         0         0         0         0         0         0         0 
dram[4]:         0         0         0         0         1         2         0         0         0         0         0         0         0         0         0         0 
dram[5]:         0         0         0         0         0         2         0         0         0         0         0         0         0         0         0         0 
total reads: 25
min_bank_accesses = 0!
chip skew: 6/2 = 3.00
number of total write accesses:
dram[0]:         0         0         0         0         0         0         0         0         0         0         0         0         0         0         0         0 
dram[1]:         0         0         0         0         0         0         0         0         0         0         0         0         0         0         0         0 
dram[2]:         0         0         0         0         0         2         0         0         0         0         0         0         0         0         0         0 
dram[3]:         0         0         0         0         0         2         0         0         0         0         0         0         0         0         0         0 
dram[4]:         0         0         0         0         0         2         0         0         0         0         0         0         0         0         0         0 
dram[5]:         0         0         0         0         0         2         0         0         0         0         0         0         0         0         0         0 
total reads: 8
min_bank_accesses = 0!
min_chip_accesses = 0!
average mf latency per bank:
dram[0]:        753    none      none      none        2181    none      none      none      none      none      none      none      none      none      none      none  
dram[1]:          0    none      none      none        2091    none      none      none      none      none      none      none      none      none      none      none  
dram[2]:          0    none      none      none        1901       454    none      none      none      none      none      none      none      none      none      none  
dram[3]:          0    none      none      none        1957       628    none      none      none      none      none      none      none      none      none      none  
dram[4]:     none      none      none      none        1283       630    none      none      none      none      none      none      none      none      none      none  
dram[5]:     none      none      none      none      none         584    none      none      none      none      none      none      none      none      none      none  
maximum mf latency per bank:
dram[0]:        285         0         0         0       285         0         0         0         0         0         0         0         0         0         0         0
dram[1]:          0         0         0         0       310         0         0         0         0         0         0         0         0         0         0         0
dram[2]:          0         0         0         0       300       316         0         0         0         0         0         0         0         0         0         0
dram[3]:          0         0         0         0       308       309         0         0         0         0         0         0         0         0         0         0
dram[4]:          0         0         0         0       279       299         0         0         0         0         0         0         0         0         0         0
dram[5]:          0         0         0         0         0       289         0         0         0         0         0         0         0         0         0         0
Memory Partition 0: 
Cache L2_bank_000:
MSHR contents

Cache L2_bank_001:
MSHR contents

In Dram Latency Queue (total = 0): 
DRAM[0]: 16 bks, busW=4 BL=8 CL=12, tRRD=2 tCCD=6, tRCD=12 tRAS=28 tRP=12 tRC=40
n_cmd=3626 n_nop=3610 n_act=4 n_pre=2 n_req=5 n_rd=10 n_write=0 bw_util=0.005516
n_activity=184 dram_eff=0.1087
bk0: 6a 3554i bk1: 0a 3624i bk2: 0a 3627i bk3: 0a 3627i bk4: 4a 3604i bk5: 0a 3625i bk6: 0a 3625i bk7: 0a 3625i bk8: 0a 3626i bk9: 0a 3626i bk10: 0a 3626i bk11: 0a 3626i bk12: 0a 3626i bk13: 0a 3626i bk14: 0a 3626i bk15: 0a 3626i 
dram_util_bins: 0 0 0 0 0 0 0 0 0 0
dram_eff_bins: 0 0 0 0 0 0 0 0 0 0
mrqq: max=1 avg=0.000551572
Memory Partition 1: 
Cache L2_bank_002:
MSHR contents

Cache L2_bank_003:
MSHR contents

In Dram Latency Queue (total = 0): 
DRAM[1]: 16 bks, busW=4 BL=8 CL=12, tRRD=2 tCCD=6, tRCD=12 tRAS=28 tRP=12 tRC=40
n_cmd=3626 n_nop=3616 n_act=2 n_pre=0 n_req=4 n_rd=8 n_write=0 bw_util=0.004413
n_activity=95 dram_eff=0.1684
bk0: 4a 3606i bk1: 0a 3626i bk2: 0a 3627i bk3: 0a 3627i bk4: 4a 3604i bk5: 0a 3625i bk6: 0a 3625i bk7: 0a 3625i bk8: 0a 3626i bk9: 0a 3626i bk10: 0a 3626i bk11: 0a 3626i bk12: 0a 3626i bk13: 0a 3626i bk14: 0a 3626i bk15: 0a 3626i 
dram_util_bins: 0 0 0 0 0 0 0 0 0 0
dram_eff_bins: 0 0 0 0 0 0 0 0 0 0
mrqq: max=1 avg=0.003861
Memory Partition 2: 
Cache L2_bank_004:
MSHR contents

Cache L2_bank_005:
MSHR contents

In Dram Latency Queue (total = 0): 
DRAM[2]: 16 bks, busW=4 BL=8 CL=12, tRRD=2 tCCD=6, tRCD=12 tRAS=28 tRP=12 tRC=40
n_cmd=3626 n_nop=3608 n_act=3 n_pre=0 n_req=8 n_rd=12 n_write=3 bw_util=0.008274
n_activity=157 dram_eff=0.1911
bk0: 4a 3606i bk1: 0a 3626i bk2: 0a 3626i bk3: 0a 3626i bk4: 4a 3603i bk5: 4a 3573i bk6: 0a 3623i bk7: 0a 3624i bk8: 0a 3625i bk9: 0a 3626i bk10: 0a 3627i bk11: 0a 3627i bk12: 0a 3627i bk13: 0a 3627i bk14: 0a 3627i bk15: 0a 3627i 
dram_util_bins: 0 0 0 0 0 0 0 0 0 0
dram_eff_bins: 0 0 0 0 0 0 0 0 0 0
mrqq: max=3 avg=0.0217871
Memory Partition 3: 
Cache L2_bank_006:
MSHR contents

Cache L2_bank_007:
MSHR contents

In Dram Latency Queue (total = 0): 
DRAM[3]: 16 bks, busW=4 BL=8 CL=12, tRRD=2 tCCD=6, tRCD=12 tRAS=28 tRP=12 tRC=40
n_cmd=3626 n_nop=3609 n_act=3 n_pre=0 n_req=7 n_rd=10 n_write=4 bw_util=0.007722
n_activity=145 dram_eff=0.1931
bk0: 2a 3610i bk1: 0a 3626i bk2: 0a 3626i bk3: 0a 3626i bk4: 4a 3603i bk5: 4a 3570i bk6: 0a 3623i bk7: 0a 3624i bk8: 0a 3625i bk9: 0a 3626i bk10: 0a 3627i bk11: 0a 3627i bk12: 0a 3627i bk13: 0a 3627i bk14: 0a 3627i bk15: 0a 3627i 
dram_util_bins: 0 0 0 0 0 0 0 0 0 0
dram_eff_bins: 0 0 0 0 0 0 0 0 0 0
mrqq: max=3 avg=0.0209597
Memory Partition 4: 
Cache L2_bank_008:
MSHR contents

Cache L2_bank_009:
MSHR contents

In Dram Latency Queue (total = 0): 
DRAM[4]: 16 bks, busW=4 BL=8 CL=12, tRRD=2 tCCD=6, tRCD=12 tRAS=28 tRP=12 tRC=40
n_cmd=3626 n_nop=3614 n_act=2 n_pre=0 n_req=5 n_rd=6 n_write=4 bw_util=0.005516
n_activity=105 dram_eff=0.1905
bk0: 0a 3627i bk1: 0a 3628i bk2: 0a 3628i bk3: 0a 3628i bk4: 2a 3611i bk5: 4a 3571i bk6: 0a 3624i bk7: 0a 3624i bk8: 0a 3624i bk9: 0a 3624i bk10: 0a 3625i bk11: 0a 3626i bk12: 0a 3626i bk13: 0a 3626i bk14: 0a 3626i bk15: 0a 3626i 
dram_util_bins: 0 0 0 0 0 0 0 0 0 0
dram_eff_bins: 0 0 0 0 0 0 0 0 0 0
mrqq: max=3 avg=0.0170987
Memory Partition 5: 
Cache L2_bank_010:
MSHR contents

Cache L2_bank_011:
MSHR contents

In Dram Latency Queue (total = 0): 
DRAM[5]: 16 bks, busW=4 BL=8 CL=12, tRRD=2 tCCD=6, tRCD=12 tRAS=28 tRP=12 tRC=40
n_cmd=3626 n_nop=3617 n_act=1 n_pre=0 n_req=4 n_rd=4 n_write=4 bw_util=0.004413
n_activity=65 dram_eff=0.2462
bk0: 0a 3626i bk1: 0a 3627i bk2: 0a 3627i bk3: 0a 3627i bk4: 0a 3627i bk5: 4a 3572i bk6: 0a 3625i bk7: 0a 3625i bk8: 0a 3625i bk9: 0a 3625i bk10: 0a 3625i bk11: 0a 3626i bk12: 0a 3626i bk13: 0a 3626i bk14: 0a 3626i bk15: 0a 3626i 
dram_util_bins: 0 0 0 0 0 0 0 0 0 0
dram_eff_bins: 0 0 0 0 0 0 0 0 0 0
mrqq: max=3 avg=0.0170987

========= L2 cache stats =========
L2_cache_bank[0]: Access = 45, Miss = 5, Miss_rate = 0.111, Pending_hits = 0, Reservation_fails = 0
L2_cache_bank[1]: Access = 0, Miss = 0, Miss_rate = -nan, Pending_hits = 0, Reservation_fails = 0
L2_cache_bank[2]: Access = 56, Miss = 4, Miss_rate = 0.071, Pending_hits = 0, Reservation_fails = 0
L2_cache_bank[3]: Access = 0, Miss = 0, Miss_rate = -nan, Pending_hits = 0, Reservation_fails = 0
L2_cache_bank[4]: Access = 54, Miss = 4, Miss_rate = 0.074, Pending_hits = 5, Reservation_fails = 0
L2_cache_bank[5]: Access = 10, Miss = 2, Miss_rate = 0.200, Pending_hits = 0, Reservation_fails = 0
L2_cache_bank[6]: Access = 29, Miss = 3, Miss_rate = 0.103, Pending_hits = 0, Reservation_fails = 0
L2_cache_bank[7]: Access = 14, Miss = 2, Miss_rate = 0.143, Pending_hits = 0, Reservation_fails = 0
L2_cache_bank[8]: Access = 8, Miss = 1, Miss_rate = 0.125, Pending_hits = 0, Reservation_fails = 0
L2_cache_bank[9]: Access = 14, Miss = 2, Miss_rate = 0.143, Pending_hits = 0, Reservation_fails = 0
L2_cache_bank[10]: Access = 0, Miss = 0, Miss_rate = -nan, Pending_hits = 0, Reservation_fails = 0
L2_cache_bank[11]: Access = 14, Miss = 2, Miss_rate = 0.143, Pending_hits = 0, Reservation_fails = 0
L2_total_cache_accesses = 244
L2_total_cache_misses = 25
L2_total_cache_miss_rate = 0.1025
L2_total_cache_pending_hits = 5
L2_total_cache_reservation_fails = 0
L2_total_cache_breakdown:
	L2_cache_stats_breakdown[GLOBAL_ACC_R][HIT] = 98
	L2_cache_stats_breakdown[GLOBAL_ACC_R][MISS] = 9
	L2_cache_stats_breakdown[CONST_ACC_R][HIT] = 14
	L2_cache_stats_breakdown[CONST_ACC_R][MISS] = 1
	L2_cache_stats_breakdown[GLOBAL_ACC_W][HIT] = 48
	L2_cache_stats_breakdown[GLOBAL_ACC_W][MISS] = 8
	L2_cache_stats_breakdown[INST_ACC_R][HIT] = 54
	L2_cache_stats_breakdown[INST_ACC_R][HIT_RESERVED] = 5
	L2_cache_stats_breakdown[INST_ACC_R][MISS] = 7
L2_cache_data_port_util = 0.017
L2_cache_fill_port_util = 0.002

icnt_total_pkts_mem_to_simt=966
icnt_total_pkts_simt_to_mem=370
LD_mem_lat_dist  0 0 0 0 0 0 0 0 0 0 0 0 0 0 0 0 0 0 0 0 0 0 0 0 0 0 0
ST_mem_lat_dist  0 0 0 0 0 0 0 0 0 0 0 0 0 0 0 0 0 0 0 0 0 0 0 0 0 0 0
----------------------------Interconnect-DETAILS--------------------------------
Class 0:
Packet latency average = 10.8594
	minimum = 6
	maximum = 32
Network latency average = 9.94643
	minimum = 6
	maximum = 32
Slowest packet = 40
Flit latency average = 8.71744
	minimum = 6
	maximum = 32
Slowest flit = 115
Fragmentation average = 0
	minimum = 0
	maximum = 0
Injected packet rate average = 0.0103252
	minimum = 0 (at node 16)
	maximum = 0.0329807 (at node 17)
Accepted packet rate average = 0.0103252
	minimum = 0 (at node 16)
	maximum = 0.0329807 (at node 17)
Injected flit rate average = 0.0281408
	minimum = 0 (at node 16)
	maximum = 0.135034 (at node 17)
Accepted flit rate average= 0.0281408
	minimum = 0 (at node 16)
	maximum = GPGPU-Sim: synchronize waiting for inactive GPU simulation
0.0553827 (at node 2)
Injected packet length average = 2.72545
Accepted packet length average = 2.72545
Total in-flight flits = 0 (0 measured)
====== Overall Traffic Statistics ======
====== Traffic class 0 ======
Packet latency average = 11.7172 (2 samples)
	minimum = 6 (2 samples)
	maximum = 35 (2 samples)
Network latency average = 10.8357 (2 samples)
	minimum = 6 (2 samples)
	maximum = 35 (2 samples)
Flit latency average = 10.1196 (2 samples)
	minimum = 6 (2 samples)
	maximum = 33 (2 samples)
Fragmentation average = 0 (2 samples)
	minimum = 0 (2 samples)
	maximum = 0 (2 samples)
Injected packet rate average = 0.00552948 (2 samples)
	minimum = 0 (2 samples)
	maximum = 0.0214433 (2 samples)
Accepted packet rate average = 0.00552948 (2 samples)
	minimum = 0 (2 samples)
	maximum = 0.0214433 (2 samples)
Injected flit rate average = 0.0151252 (2 samples)
	minimum = 0 (2 samples)
	maximum = 0.0796518 (2 samples)
Accepted flit rate average = 0.0151252 (2 samples)
	minimum = 0 (2 samples)
	maximum = 0.0440361 (2 samples)
Injected packet size average = 2.73537 (2 samples)
Accepted packet size average = 2.73537 (2 samples)
Hops average = 1 (2 samples)
----------------------------END-of-Interconnect-DETAILS-------------------------


gpgpu_simulation_time = 0 days, 0 hrs, 0 min, 3 sec (3 sec)
gpgpu_simulation_rate = 6355 (inst/sec)
gpgpu_simulation_rate = 1208 (cycle/sec)
GPGPU-Sim API: Stream Manager State
GPGPU-Sim: detected inactive GPU simulation thread

GPGPU-Sim PTX: cudaLaunch for 0x0x402067 (mode=performance simulation) on stream 0
GPGPU-Sim PTX: pushing kernel '_Z4Fan1PfS_ii' to stream 0, gridDim= (1,1,1) blockDim = (512,1,1) 
kernel '_Z4Fan1PfS_ii' transfer to GPU hardware scheduler
GPGPU-Sim uArch: Shader 3 bind to kernel 3 '_Z4Fan1PfS_ii'
GPGPU-Sim uArch: CTA/core = 3, limited by: threads
GPGPU-Sim uArch: core:  3, cta: 0 initialized @(1,3626)
GPGPU-Sim uArch: Shader 3 finished CTA #0 (920,3626), 0 CTAs running
GPGPU-Sim uArch: Shader 3 empty (release kernel 3 '_Z4Fan1PfS_ii').
GPGPU-Sim uArch: GPU detected kernel '_Z4Fan1PfS_ii' finished on shader 3.
kernel_name = _Z4Fan1PfS_ii 
kernel_launch_uid = 3 
gpu_sim_cycle = 921
gpu_sim_insn = 7518
gpu_ipc =       8.1629
gpu_tot_sim_cycle = 4547
gpu_tot_sim_insn = 26583
gpu_tot_ipc =       5.8463
gpu_tot_issued_cta = 0
gpu_stall_dramfull = 1
gpu_stall_icnt2sh    = 174
gpu_total_sim_rate=8861

========= Core cache stats =========
L1I_cache:
	L1I_total_cache_accesses = 834
	L1I_total_cache_misses = 100
	L1I_total_cache_miss_rate = 0.1199
	L1I_total_cache_pending_hits = 0
	L1I_total_cache_reservation_fails = 0
L1D_cache:
	L1D_cache_core[0]: Access = 10, Miss = 7, Miss_rate = 0.700, Pending_hits = 0, Reservation_fails = 0
	L1D_cache_core[1]: Access = 27, Miss = 19, Miss_rate = 0.704, Pending_hits = 1, Reservation_fails = 0
	L1D_cache_core[2]: Access = 23, Miss = 11, Miss_rate = 0.478, Pending_hits = 2, Reservation_fails = 0
	L1D_cache_core[3]: Access = 31, Miss = 19, Miss_rate = 0.613, Pending_hits = 0, Reservation_fails = 0
	L1D_cache_core[4]: Access = 16, Miss = 8, Miss_rate = 0.500, Pending_hits = 0, Reservation_fails = 0
	L1D_cache_core[5]: Access = 12, Miss = 6, Miss_rate = 0.500, Pending_hits = 0, Reservation_fails = 0
	L1D_cache_core[6]: Access = 10, Miss = 6, Miss_rate = 0.600, Pending_hits = 0, Reservation_fails = 0
	L1D_cache_core[7]: Access = 10, Miss = 7, Miss_rate = 0.700, Pending_hits = 0, Reservation_fails = 0
	L1D_cache_core[8]: Access = 10, Miss = 7, Miss_rate = 0.700, Pending_hits = 0, Reservation_fails = 0
	L1D_cache_core[9]: Access = 7, Miss = 5, Miss_rate = 0.714, Pending_hits = 0, Reservation_fails = 0
	L1D_cache_core[10]: Access = 10, Miss = 6, Miss_rate = 0.600, Pending_hits = 0, Reservation_fails = 0
	L1D_cache_core[11]: Access = 10, Miss = 7, Miss_rate = 0.700, Pending_hits = 0, Reservation_fails = 0
	L1D_cache_core[12]: Access = 10, Miss = 7, Miss_rate = 0.700, Pending_hits = 0, Reservation_fails = 0
	L1D_cache_core[13]: Access = 7, Miss = 5, Miss_rate = 0.714, Pending_hits = 0, Reservation_fails = 0
	L1D_cache_core[14]: Access = 10, Miss = 6, Miss_rate = 0.600, Pending_hits = 0, Reservation_fails = 0
	L1D_total_cache_accesses = 203
	L1D_total_cache_misses = 126
	L1D_total_cache_miss_rate = 0.6207
	L1D_total_cache_pending_hits = 3
	L1D_total_cache_reservation_fails = 0
	L1D_cache_data_port_util = 0.003
	L1D_cache_fill_port_util = 0.005
L1C_cache:
	L1C_total_cache_accesses = 280
	L1C_total_cache_misses = 107
	L1C_total_cache_miss_rate = 0.3821
	L1C_total_cache_pending_hits = 0
	L1C_total_cache_reservation_fails = 253
L1T_cache:
	L1T_total_cache_accesses = 0
	L1T_total_cache_misses = 0
	L1T_total_cache_pending_hits = 0
	L1T_total_cache_reservation_fails = 0

Total_core_cache_stats:
	Total_core_cache_stats_breakdown[GLOBAL_ACC_R][HIT] = 23
	Total_core_cache_stats_breakdown[GLOBAL_ACC_R][HIT_RESERVED] = 3
	Total_core_cache_stats_breakdown[GLOBAL_ACC_R][MISS] = 114
	Total_core_cache_stats_breakdown[CONST_ACC_R][HIT] = 173
	Total_core_cache_stats_breakdown[CONST_ACC_R][MISS] = 107
	Total_core_cache_stats_breakdown[CONST_ACC_R][RESERVATION_FAIL] = 253
	Total_core_cache_stats_breakdown[GLOBAL_ACC_W][HIT] = 51
	Total_core_cache_stats_breakdown[GLOBAL_ACC_W][MISS] = 12
	Total_core_cache_stats_breakdown[INST_ACC_R][HIT] = 734
	Total_core_cache_stats_breakdown[INST_ACC_R][MISS] = 100
Shader 0 warp_id issue ditsribution:
warp_id:
0, 
distro:
49, 
gpgpu_n_tot_thrd_icount = 43968
gpgpu_n_tot_w_icount = 1374
gpgpu_n_stall_shd_mem = 370
gpgpu_n_mem_read_local = 0
gpgpu_n_mem_write_local = 0
gpgpu_n_mem_read_global = 114
gpgpu_n_mem_write_global = 63
gpgpu_n_mem_texture = 0
gpgpu_n_mem_const = 15
gpgpu_n_load_insn  = 823
gpgpu_n_store_insn = 284
gpgpu_n_shmem_insn = 0
gpgpu_n_tex_insn = 0
gpgpu_n_const_mem_insn = 0
gpgpu_n_param_mem_insn = 6409
gpgpu_n_shmem_bkconflict = 0
gpgpu_n_cache_bkconflict = 0
gpgpu_n_intrawarp_mshr_merge = 0
gpgpu_n_cmem_portconflict = 253
gpgpu_stall_shd_mem[c_mem][bk_conf] = 253
gpgpu_stall_shd_mem[c_mem][mshr_rc] = 0
gpgpu_stall_shd_mem[c_mem][icnt_rc] = 0
gpgpu_stall_shd_mem[c_mem][data_port_stall] = 0
gpgpu_stall_shd_mem[t_mem][mshr_rc] = 0
gpgpu_stall_shd_mem[t_mem][icnt_rc] = 0
gpgpu_stall_shd_mem[t_mem][data_port_stall] = 0
gpgpu_stall_shd_mem[s_mem][bk_conf] = 0
gpgpu_stall_shd_mem[gl_mem][bk_conf] = 0
gpgpu_stall_shd_mem[gl_mem][coal_stall] = 117
gpgpu_stall_shd_mem[gl_mem][data_port_stall] = 0
gpgpu_stall_shd_mem[g_mem_ld][mshr_rc] = 0
gpgpu_stall_shd_mem[g_mem_ld][icnt_rc] = 0
gpgpu_stall_shd_mem[g_mem_ld][wb_icnt_rc] = 0
gpgpu_stall_shd_mem[g_mem_ld][wb_rsrv_fail] = 0
gpgpu_stall_shd_mem[g_mem_st][mshr_rc] = 0
gpgpu_stall_shd_mem[g_mem_st][icnt_rc] = 0
gpgpu_stall_shd_mem[g_mem_st][wb_icnt_rc] = 0
gpgpu_stall_shd_mem[g_mem_st][wb_rsrv_fail] = 0
gpgpu_stall_shd_mem[l_mem_ld][mshr_rc] = 0
gpgpu_stall_shd_mem[l_mem_ld][icnt_rc] = 0
gpgpu_stall_shd_mem[l_mem_ld][wb_icnt_rc] = 0
gpgpu_stall_shd_mem[l_mem_ld][wb_rsrv_fail] = 0
gpgpu_stall_shd_mem[l_mem_st][mshr_rc] = 0
gpgpu_stall_shd_mem[l_mem_st][icnt_rc] = 0
gpgpu_stall_shd_mem[l_mem_ld][wb_icnt_rc] = 0
gpgpu_stall_shd_mem[l_mem_ld][wb_rsrv_fail] = 0
gpu_reg_bank_conflict_stalls = 0
Warp Occupancy Distribution:
Stall:318	W0_Idle:37334	W0_Scoreboard:8458	W1:0	W2:0	W3:14	W4:46	W5:0	W6:0	W7:0	W8:0	W9:1	W10:0	W11:0	W12:134	W13:0	W14:25	W15:25	W16:649	W17:1	W18:1	W19:0	W20:0	W21:0	W22:0	W23:0	W24:0	W25:0	W26:0	W27:0	W28:0	W29:0	W30:0	W31:0	W32:478
traffic_breakdown_coretomem[CONST_ACC_R] = 120 {8:15,}
traffic_breakdown_coretomem[GLOBAL_ACC_R] = 912 {8:114,}
traffic_breakdown_coretomem[GLOBAL_ACC_W] = 5432 {40:32,72:1,136:30,}
traffic_breakdown_coretomem[INST_ACC_R] = 544 {8:68,}
traffic_breakdown_memtocore[CONST_ACC_R] = 1080 {72:15,}
traffic_breakdown_memtocore[GLOBAL_ACC_R] = 15504 {136:114,}
traffic_breakdown_memtocore[GLOBAL_ACC_W] = 504 {8:63,}
traffic_breakdown_memtocore[INST_ACC_R] = 9248 {136:68,}
maxmrqlatency = 34 
maxdqlatency = 0 
maxmflatency = 316 
averagemflatency = 162 
max_icnt2mem_latency = 45 
max_icnt2sh_latency = 4546 
mrq_lat_table:17 	1 	0 	7 	4 	4 	0 	0 	0 	0 	0 	0 	0 	0 	0 	0 	0 	0 	0 	0 	0 	0 	0 	0 	0 	0 	0 	0 	0 	0 	0 	0 	
dq_lat_table:0 	0 	0 	0 	0 	0 	0 	0 	0 	0 	0 	0 	0 	0 	0 	0 	0 	0 	0 	0 	0 	0 	0 	0 	0 	0 	0 	0 	0 	0 	0 	0 	
mf_lat_table:0 	0 	0 	0 	0 	0 	0 	174 	18 	0 	0 	0 	0 	0 	0 	0 	0 	0 	0 	0 	0 	0 	0 	0 	0 	0 	0 	0 	0 	0 	0 	0 	
icnt2mem_lat_table:0 	0 	0 	221 	30 	9 	0 	0 	0 	0 	0 	0 	0 	0 	0 	0 	0 	0 	0 	0 	0 	0 	0 	0 	
[...]
average row accesses per activate:
dram[0]:  1.000000      -nan      -nan      -nan  2.000000      -nan      -nan      -nan      -nan      -nan      -nan      -nan      -nan      -nan      -nan      -nan 
dram[1]:  2.000000      -nan      -nan      -nan  2.000000      -nan      -nan      -nan      -nan      -nan      -nan      -nan      -nan      -nan      -nan      -nan 
dram[2]:  2.000000      -nan      -nan      -nan  2.000000  4.000000      -nan      -nan      -nan      -nan      -nan      -nan      -nan      -nan      -nan      -nan 
dram[3]:  1.000000      -nan      -nan      -nan  2.000000  4.000000      -nan      -nan      -nan      -nan      -nan      -nan      -nan      -nan      -nan      -nan 
dram[4]:      -nan      -nan      -nan      -nan  1.000000  4.000000      -nan      -nan      -nan      -nan      -nan      -nan      -nan      -nan      -nan      -nan 
dram[5]:      -nan      -nan      -nan      -nan      -nan  4.000000      -nan      -nan      -nan      -nan      -nan      -nan      -nan      -nan      -nan      -nan 
average row locality = 33/15 = 2.200000
number of total memory accesses made:
dram[0]:         0         0         0         0         0         0         0         0         0         0         0         0         0         0         0         0 
dram[1]:         0         0         0         0         0         0         0         0         0         0         0         0         0         0         0         0 
dram[2]:         0         0         0         0         0         0         0         0         0         0         0         0         0         0         0         0 
dram[3]:         0         0         0         0         0         0         0         0         0         0         0         0         0         0         0         0 
dram[4]:         0         0         0         0         0         0         0         0         0         0         0         0         0         0         0         0 
dram[5]:         0         0         0         0         0         0         0         0         0         0         0         0         0         0         0         0 
total accesses: 0
min_bank_accesses = 0!
min_chip_accesses = 0!
number of total read accesses:
dram[0]:         3         0         0         0         2         0         0         0         0         0         0         0         0         0         0         0 
dram[1]:         2         0         0         0         2         0         0         0         0         0         0         0         0         0         0         0 
dram[2]:         2         0         0         0         2         2         0         0         0         0         0         0         0         0         0         0 
dram[3]:         1         0         0         0         2         2         0         0         0         0         0         0         0         0         0         0 
dram[4]:         0         0         0         0         1         2         0         0         0         0         0         0         0         0         0         0 
dram[5]:         0         0         0         0         0         2         0         0         0         0         0         0         0         0         0         0 
total reads: 25
min_bank_accesses = 0!
chip skew: 6/2 = 3.00
number of total write accesses:
dram[0]:         0         0         0         0         0         0         0         0         0         0         0         0         0         0         0         0 
dram[1]:         0         0         0         0         0         0         0         0         0         0         0         0         0         0         0         0 
dram[2]:         0         0         0         0         0         2         0         0         0         0         0         0         0         0         0         0 
dram[3]:         0         0         0         0         0         2         0         0         0         0         0         0         0         0         0         0 
dram[4]:         0         0         0         0         0         2         0         0         0         0         0         0         0         0         0         0 
dram[5]:         0         0         0         0         0         2         0         0         0         0         0         0         0         0         0         0 
total reads: 8
min_bank_accesses = 0!
min_chip_accesses = 0!
average mf latency per bank:
dram[0]:        753    none      none      none        4943    none      none      none      none      none      none      none      none      none      none      none  
dram[1]:          0    none      none      none       10117    none      none      none      none      none      none      none      none      none      none      none  
dram[2]:          0    none      none      none       13446       731    none      none      none      none      none      none      none      none      none      none  
dram[3]:          0    none      none      none       15418      1849    none      none      none      none      none      none      none      none      none      none  
dram[4]:     none      none      none      none       10455      2292    none      none      none      none      none      none      none      none      none      none  
dram[5]:     none      none      none      none      none        2625    none      none      none      none      none      none      none      none      none      none  
maximum mf latency per bank:
dram[0]:        285         0         0         0       285         0         0         0         0         0         0         0         0         0         0         0
dram[1]:          0         0         0         0       310         0         0         0         0         0         0         0         0         0         0         0
dram[2]:          0         0         0         0       300       316         0         0         0         0         0         0         0         0         0         0
dram[3]:          0         0         0         0       308       309         0         0         0         0         0         0         0         0         0         0
dram[4]:          0         0         0         0       279       299         0         0         0         0         0         0         0         0         0         0
dram[5]:          0         0         0         0         0       289         0         0         0         0         0         0         0         0         0         0
Memory Partition 0: 
Cache L2_bank_000:
MSHR contents

Cache L2_bank_001:
MSHR contents

In Dram Latency Queue (total = 0): 
DRAM[0]: 16 bks, busW=4 BL=8 CL=12, tRRD=2 tCCD=6, tRCD=12 tRAS=28 tRP=12 tRC=40
n_cmd=26587 n_nop=26571 n_act=4 n_pre=2 n_req=5 n_rd=10 n_write=0 bw_util=0.0007522
n_activity=184 dram_eff=0.1087
bk0: 6a 26515i bk1: 0a 26585i bk2: 0a 26588i bk3: 0a 26588i bk4: 4a 26565i bk5: 0a 26586i bk6: 0a 26586i bk7: 0a 26586i bk8: 0a 26587i bk9: 0a 26587i bk10: 0a 26587i bk11: 0a 26587i bk12: 0a 26587i bk13: 0a 26587i bk14: 0a 26587i bk15: 0a 26587i 
dram_util_bins: 0 0 0 0 0 0 0 0 0 0
dram_eff_bins: 0 0 0 0 0 0 0 0 0 0
mrqq: max=1 avg=7.52247e-05
Memory Partition 1: 
Cache L2_bank_002:
MSHR contents

Cache L2_bank_003:
MSHR contents

In Dram Latency Queue (total = 0): 
DRAM[1]: 16 bks, busW=4 BL=8 CL=12, tRRD=2 tCCD=6, tRCD=12 tRAS=28 tRP=12 tRC=40
n_cmd=26587 n_nop=26577 n_act=2 n_pre=0 n_req=4 n_rd=8 n_write=0 bw_util=0.0006018
n_activity=95 dram_eff=0.1684
bk0: 4a 26567i bk1: 0a 26587i bk2: 0a 26588i bk3: 0a 26588i bk4: 4a 26565i bk5: 0a 26586i bk6: 0a 26586i bk7: 0a 26586i bk8: 0a 26587i bk9: 0a 26587i bk10: 0a 26587i bk11: 0a 26587i bk12: 0a 26587i bk13: 0a 26587i bk14: 0a 26587i bk15: 0a 26587i 
dram_util_bins: 0 0 0 0 0 0 0 0 0 0
dram_eff_bins: 0 0 0 0 0 0 0 0 0 0
mrqq: max=1 avg=0.000526573
Memory Partition 2: 
Cache L2_bank_004:
MSHR contents

Cache L2_bank_005:
MSHR contents

In Dram Latency Queue (total = 0): 
DRAM[2]: 16 bks, busW=4 BL=8 CL=12, tRRD=2 tCCD=6, tRCD=12 tRAS=28 tRP=12 tRC=40
n_cmd=26587 n_nop=26569 n_act=3 n_pre=0 n_req=8 n_rd=12 n_write=3 bw_util=0.001128
n_activity=157 dram_eff=0.1911
bk0: 4a 26567i bk1: 0a 26587i bk2: 0a 26587i bk3: 0a 26587i bk4: 4a 26564i bk5: 4a 26534i bk6: 0a 26584i bk7: 0a 26585i bk8: 0a 26586i bk9: 0a 26587i bk10: 0a 26588i bk11: 0a 26588i bk12: 0a 26588i bk13: 0a 26588i bk14: 0a 26588i bk15: 0a 26588i 
dram_util_bins: 0 0 0 0 0 0 0 0 0 0
dram_eff_bins: 0 0 0 0 0 0 0 0 0 0
mrqq: max=3 avg=0.00297138
Memory Partition 3: 
Cache L2_bank_006:
MSHR contents

Cache L2_bank_007:
MSHR contents

In Dram Latency Queue (total = 0): 
DRAM[3]: 16 bks, busW=4 BL=8 CL=12, tRRD=2 tCCD=6, tRCD=12 tRAS=28 tRP=12 tRC=40
n_cmd=26587 n_nop=26570 n_act=3 n_pre=0 n_req=7 n_rd=10 n_write=4 bw_util=0.001053
n_activity=145 dram_eff=0.1931
bk0: 2a 26571i bk1: 0a 26587i bk2: 0a 26587i bk3: 0a 26587i bk4: 4a 26564i bk5: 4a 26531i bk6: 0a 26584i bk7: 0a 26585i bk8: 0a 26586i bk9: 0a 26587i bk10: 0a 26588i bk11: 0a 26588i bk12: 0a 26588i bk13: 0a 26588i bk14: 0a 26588i bk15: 0a 26588i 
dram_util_bins: 0 0 0 0 0 0 0 0 0 0
dram_eff_bins: 0 0 0 0 0 0 0 0 0 0
mrqq: max=3 avg=0.00285854
Memory Partition 4: 
Cache L2_bank_008:
MSHR contents

Cache L2_bank_009:
MSHR contents

In Dram Latency Queue (total = 0): 
DRAM[4]: 16 bks, busW=4 BL=8 CL=12, tRRD=2 tCCD=6, tRCD=12 tRAS=28 tRP=12 tRC=40
n_cmd=26587 n_nop=26575 n_act=2 n_pre=0 n_req=5 n_rd=6 n_write=4 bw_util=0.0007522
n_activity=105 dram_eff=0.1905
bk0: 0a 26588i bk1: 0a 26589i bk2: 0a 26589i bk3: 0a 26589i bk4: 2a 26572i bk5: 4a 26532i bk6: 0a 26585i bk7: 0a 26585i bk8: 0a 26585i bk9: 0a 26585i bk10: 0a 26586i bk11: 0a 26587i bk12: 0a 26587i bk13: 0a 26587i bk14: 0a 26587i bk15: 0a 26587i 
dram_util_bins: 0 0 0 0 0 0 0 0 0 0
dram_eff_bins: 0 0 0 0 0 0 0 0 0 0
mrqq: max=3 avg=0.00233197
Memory Partition 5: 
Cache L2_bank_010:
MSHR contents

Cache L2_bank_011:
MSHR contents

In Dram Latency Queue (total = 0): 
DRAM[5]: 16 bks, busW=4 BL=8 CL=12, tRRD=2 tCCD=6, tRCD=12 tRAS=28 tRP=12 tRC=40
n_cmd=26587 n_nop=26578 n_act=1 n_pre=0 n_req=4 n_rd=4 n_write=4 bw_util=0.0006018
n_activity=65 dram_eff=0.2462
bk0: 0a 26587i bk1: 0a 26588i bk2: 0a 26588i bk3: 0a 26588i bk4: 0a 26588i bk5: 4a 26533i bk6: 0a 26586i bk7: 0a 26586i bk8: 0a 26586i bk9: 0a 26586i bk10: 0a 26586i bk11: 0a 26587i bk12: 0a 26587i bk13: 0a 26587i bk14: 0a 26587i bk15: 0a 26587i 
dram_util_bins: 0 0 0 0 0 0 0 0 0 0
dram_eff_bins: 0 0 0 0 0 0 0 0 0 0
mrqq: max=3 avg=0.00233197

========= L2 cache stats =========
L2_cache_bank[0]: Access = 107, Miss = 5, Miss_rate = 0.047, Pending_hits = 0, Reservation_fails = 0
L2_cache_bank[1]: Access = 0, Miss = 0, Miss_rate = -nan, Pending_hits = 0, Reservation_fails = 0
L2_cache_bank[2]: Access = 158, Miss = 4, Miss_rate = 0.025, Pending_hits = 0, Reservation_fails = 0
L2_cache_bank[3]: Access = 0, Miss = 0, Miss_rate = -nan, Pending_hits = 0, Reservation_fails = 0
L2_cache_bank[4]: Access = 204, Miss = 4, Miss_rate = 0.020, Pending_hits = 5, Reservation_fails = 0
L2_cache_bank[5]: Access = 17, Miss = 2, Miss_rate = 0.118, Pending_hits = 0, Reservation_fails = 0
L2_cache_bank[6]: Access = 218, Miss = 3, Miss_rate = 0.014, Pending_hits = 0, Reservation_fails = 0
L2_cache_bank[7]: Access = 44, Miss = 2, Miss_rate = 0.045, Pending_hits = 0, Reservation_fails = 0
L2_cache_bank[8]: Access = 72, Miss = 1, Miss_rate = 0.014, Pending_hits = 0, Reservation_fails = 0
L2_cache_bank[9]: Access = 57, Miss = 2, Miss_rate = 0.035, Pending_hits = 0, Reservation_fails = 0
L2_cache_bank[10]: Access = 0, Miss = 0, Miss_rate = -nan, Pending_hits = 0, Reservation_fails = 0
L2_cache_bank[11]: Access = 68, Miss = 2, Miss_rate = 0.029, Pending_hits = 0, Reservation_fails = 0
L2_total_cache_accesses = 945
L2_total_cache_misses = 25
L2_total_cache_miss_rate = 0.0265
L2_total_cache_pending_hits = 5
L2_total_cache_reservation_fails = 0
L2_total_cache_breakdown:
	L2_cache_stats_breakdown[GLOBAL_ACC_R][HIT] = 476
	L2_cache_stats_breakdown[GLOBAL_ACC_R][MISS] = 9
	L2_cache_stats_breakdown[CONST_ACC_R][HIT] = 14
	L2_cache_stats_breakdown[CONST_ACC_R][MISS] = 1
	L2_cache_stats_breakdown[GLOBAL_ACC_W][HIT] = 332
	L2_cache_stats_breakdown[GLOBAL_ACC_W][MISS] = 8
	L2_cache_stats_breakdown[INST_ACC_R][HIT] = 93
	L2_cache_stats_breakdown[INST_ACC_R][HIT_RESERVED] = 5
	L2_cache_stats_breakdown[INST_ACC_R][MISS] = 7
L2_cache_data_port_util = 0.010
L2_cache_fill_port_util = 0.000

icnt_total_pkts_mem_to_simt=3335
icnt_total_pkts_simt_to_mem=1891
LD_mem_lat_dist  0 0 0 0 0 0 0 0 0 0 0 0 0 0 0 0 0 0 0 0 0 0 0 0 0 0 0
ST_mem_lat_dist  0 0 0 0 0 0 0 0 0 0 0 0 0 0 0 0 0 0 0 0 0 0 0 0 0 0 0
----------------------------Interconnect-DETAILS--------------------------------
Class 0:
Packet latency average = 7.25
	minimum = 6
	maximum = 10
Network latency average = 7.25
	minimum = 6
	maximum = 10
Slowest packet = 1883
Flit latency average = 6
	minimum = 6
	maximum = 6
Slowest flit = 5208
Fragmentation average = 0
	minimum = 0
	maximum = 0
Injected packet rate average = 0.000414981
	minimum = 0 (at node 1)
	maximum = 0.00560224 (at node 0)
Accepted packet rate average = 0.000414981
	minimum = 0 (at node 1)
	maximum = 0.00560224 (at node 0)
Injected flit rate average = 0.000933707
	minimum = 0 (at node 1)
	maximum = 0.00840336 (at node 0)
Accepted flit rate average= 0.000933707
	minimum = 0 (at node 1)
	maximum = 0.0168067 (at node 0)
Injected packet length average = 2.25
Accepted packet length average = 2.25
Total in-flight flits = 0 (0 measured)
====== Overall Traffic Statistics ======
====== Traffic class 0 ======
Packet latency average = 10.2215 (30 samples)
	minimum = 6 (30 samples)
	maximum = 22.8667 (30 samples)
Network latency average = 9.54704 (30 samples)
	minimum = 6 (30 samples)
	maximum = 21.0333 (30 samples)
Flit latency average = 8.25461 (30 samples)
	minimum = 6 (30 samples)
	maximum = 17.5333 (30 samples)
Fragmentation average = 0 (30 samples)
	minimum = 0 (30 samples)
	maximum = 0 (30 samples)
Injected packet rate average = 0.00254963 (30 samples)
	minimum = 0 (30 samples)
	maximum = 0.0142248 (30 samples)
Accepted packet rate average = 0.00254963 (30 samples)
	minimum = 0 (30 samples)
	maximum = 0.0142248 (30 samples)
Injected flit rate average = 0.00705177 (30 samples)
	minimum = 0 (30 samples)
	maximum = 0.0407626 (30 samples)
Accepted flit rate average = 0.00705177 (30 samples)
	minimum = 0 (30 samples)
	maximum = 0.0400999 (30 samples)
Injected packet size average = 2.7658 (30 samples)
Accepted packet size average = 2.7658 (30 samples)
Hops average = 1 (30 samples)
----------------------------END-of-Interconnect-DETAILS-------------------------


gpgpu_simulation_time = 0 days, 0 hrs, 0 min, 14 sec (14 sec)
gpgpu_simulation_rate = 15814 (inst/sec)
gpgpu_simulation_rate = 1899 (cycle/sec)
GPGPU-Sim: synchronize waiting for inactive GPU simulation
GPGPU-Sim API: Stream Manager State
GPGPU-Sim: detected inactive GPU simulation thread
Matrix m is: 
    0.00     0.00     0.00     0.00     0.00     0.00     0.00     0.00     0.00     0.00     0.00     0.00     0.00     0.00     0.00     0.00 
    0.99     0.00     0.00     0.00     0.00     0.00     0.00     0.00     0.00     0.00     0.00     0.00     0.00     0.00     0.00     0.00 
    0.98     0.99     0.00     0.00     0.00     0.00     0.00     0.00     0.00     0.00     0.00     0.00     0.00     0.00     0.00     0.00 
    0.97     0.98     0.99     0.00     0.00     0.00     0.00     0.00     0.00     0.00     0.00     0.00     0.00     0.00     0.00     0.00 
    0.96     0.97     0.98     0.99     0.00     0.00     0.00     0.00     0.00     0.00     0.00     0.00     0.00     0.00     0.00     0.00 
    0.95     0.96     0.97     0.98     0.99     0.00     0.00     0.00     0.00     0.00     0.00     0.00     0.00     0.00     0.00     0.00 
    0.94     0.95     0.96     0.97     0.98     0.99     0.00     0.00     0.00     0.00     0.00     0.00     0.00     0.00     0.00     0.00 
    0.93     0.94     0.95     0.96     0.97     0.98     0.99     0.00     0.00     0.00     0.00     0.00     0.00     0.00     0.00     0.00 
    0.92     0.93     0.94     0.95     0.96     0.97     0.98     0.99     0.00     0.00     0.00     0.00     0.00     0.00     0.00     0.00 
    0.91     0.92     0.93     0.94     0.95     0.96     0.97     0.98     0.99     0.00     0.00     0.00     0.00     0.00     0.00     0.00 
    0.90     0.91     0.92     0.93     0.94     0.95     0.96     0.97     0.98     0.99     0.00     0.00     0.00     0.00     0.00     0.00 
    0.90     0.90     0.91     0.92     0.93     0.94     0.95     0.96     0.97     0.98     0.99     0.00     0.00     0.00     0.00     0.00 
    0.89     0.90     0.90     0.91     0.92     0.93     0.94     0.95     0.96     0.97     0.98     0.99     0.00     0.00     0.00     0.00 
    0.88     0.89     0.90     0.90     0.91     0.92     0.93     0.94     0.95     0.96     0.97     0.98     0.99     0.00     0.00     0.00 
    0.87     0.88     0.89     0.90     0.90     0.91     0.92     0.93     0.94     0.95     0.96     0.97     0.98     0.99     0.00     0.00 
    0.86     0.87     0.88     0.89     0.90     0.90     0.91     0.92     0.93     0.94     0.95     0.96     0.97     0.98     0.99     0.00 

Matrix a is: 
   10.00     9.90     9.80     9.70     9.61     9.51     9.42     9.32     9.23     9.14     9.05     8.96     8.87     8.78     8.69     8.61 
    0.00     0.20     0.20     0.19     0.19     0.19     0.19     0.19     0.18     0.18     0.18     0.18     0.18     0.18     0.17     0.17 
    0.00     0.00     0.20     0.20     0.19     0.19     0.19     0.19     0.19     0.18     0.18     0.18     0.18     0.18     0.18     0.17 
    0.00     0.00     0.00     0.20     0.20     0.19     0.19     0.19     0.19     0.19     0.18     0.18     0.18     0.18     0.18     0.18 
    0.00     0.00     0.00     0.00     0.20     0.20     0.19     0.19     0.19     0.19     0.19     0.18     0.18     0.18     0.18     0.18 
    0.00     0.00     0.00     0.00     0.00     0.20     0.20     0.19     0.19     0.19     0.19     0.19     0.18     0.18     0.18     0.18 
    0.00     0.00     0.00     0.00     0.00     0.00     0.20     0.20     0.19     0.19     0.19     0.19     0.19     0.18     0.18     0.18 
    0.00     0.00     0.00     0.00     0.00     0.00     0.00     0.20     0.20     0.19     0.19     0.19     0.19     0.19     0.18     0.18 
    0.00     0.00     0.00     0.00     0.00     0.00     0.00     0.00     0.20     0.20     0.19     0.19     0.19     0.19     0.19     0.18 
    0.00     0.00     0.00     0.00     0.00     0.00     0.00     0.00     0.00     0.20     0.20     0.19     0.19     0.19     0.19     0.19 
    0.00     0.00     0.00     0.00     0.00     0.00     0.00     0.00     0.00     0.00     0.20     0.20     0.19     0.19     0.19     0.19 
    0.00     0.00     0.00     0.00     0.00     0.00     0.00     0.00     0.00     0.00     0.00     0.20     0.20     0.19     0.19     0.19 
    0.00     0.00     0.00     0.00     0.00     0.00     0.00     0.00     0.00     0.00     0.00     0.00     0.20     0.20     0.19     0.19 
    0.00     0.00     0.00     0.00     0.00     0.00     0.00     0.00     0.00     0.00     0.00     0.00     0.00     0.20     0.20     0.19 
    0.00     0.00     0.00     0.00     0.00     0.00     0.00     0.00     0.00     0.00     0.00     0.00     0.00     0.00     0.20     0.20 
    0.00     0.00     0.00     0.00     0.00     0.00     0.00     0.00     0.00     0.00     0.00     0.00     0.00     0.00     0.00     0.20 

Array b is: 
1.00 0.01 0.01 0.01 0.01 0.01 0.01 0.01 0.01 0.01 0.01 0.01 0.01 0.01 0.01 0.01 

The final solution is: 
0.05 0.00 0.00 0.00 0.00 0.00 0.00 0.00 0.00 0.00 0.00 0.00 0.00 0.00 0.00 0.05 


Time total (including memory transfers)	12.974070 sec
Time for CUDA kernels:	12.964575 sec
