

        *** GPGPU-Sim Simulator Version 3.2.2  [build 0] ***


GPGPU-Sim PTX: simulation mode 0 (can change with PTX_SIM_MODE_FUNC environment variable:
               1=functional simulation only, 0=detailed performance simulator)
GPGPU-Sim: Configuration options:

-network_mode                           1 # Interconnection network mode
-inter_config_file   config_fermi_islip.icnt # Interconnection network config file
-gpgpu_ptx_use_cuobjdump                    1 # Use cuobjdump to extract ptx and sass from binaries
-gpgpu_experimental_lib_support                    0 # Try to extract code from cuda libraries [Broken because of unknown cudaGetExportTable]
-gpgpu_ptx_convert_to_ptxplus                    0 # Convert SASS (native ISA) to ptxplus and run ptxplus
-gpgpu_ptx_force_max_capability                   20 # Force maximum compute capability
-gpgpu_ptx_inst_debug_to_file                    0 # Dump executed instructions' debug information to file
-gpgpu_ptx_inst_debug_file       inst_debug.txt # Executed instructions' debug output file
-gpgpu_ptx_inst_debug_thread_uid                    1 # Thread UID for executed instructions' debug output
-gpgpu_simd_model                       1 # 1 = post-dominator
-gpgpu_shader_core_pipeline              1536:32 # shader core pipeline config, i.e., {<nthread>:<warpsize>}
-gpgpu_tex_cache:l1  4:128:24,L:R:m:N:L,F:128:4,128:2 # per-shader L1 texture cache  (READ-ONLY) config  {<nsets>:<bsize>:<assoc>,<rep>:<wr>:<alloc>:<wr_alloc>,<mshr>:<N>:<merge>,<mq>:<rf>}
-gpgpu_const_cache:l1 64:64:2,L:R:f:N:L,A:2:32,4 # per-shader L1 constant memory cache  (READ-ONLY) config  {<nsets>:<bsize>:<assoc>,<rep>:<wr>:<alloc>:<wr_alloc>,<mshr>:<N>:<merge>,<mq>} 
-gpgpu_cache:il1     4:128:4,L:R:f:N:L,A:2:32,4 # shader L1 instruction cache config  {<nsets>:<bsize>:<assoc>,<rep>:<wr>:<alloc>:<wr_alloc>,<mshr>:<N>:<merge>,<mq>} 
-gpgpu_cache:dl1     32:128:4,L:L:m:N:H,A:32:8,8 # per-shader L1 data cache config  {<nsets>:<bsize>:<assoc>,<rep>:<wr>:<alloc>:<wr_alloc>,<mshr>:<N>:<merge>,<mq> | none}
-gpgpu_cache:dl1PrefL1                 none # per-shader L1 data cache config  {<nsets>:<bsize>:<assoc>,<rep>:<wr>:<alloc>:<wr_alloc>,<mshr>:<N>:<merge>,<mq> | none}
-gpgpu_cache:dl1PreShared                 none # per-shader L1 data cache config  {<nsets>:<bsize>:<assoc>,<rep>:<wr>:<alloc>:<wr_alloc>,<mshr>:<N>:<merge>,<mq> | none}
-gmem_skip_L1D                          0 # global memory access skip L1D cache (implements -Xptxas -dlcm=cg, default=no skip)
-gpgpu_perfect_mem                      0 # enable perfect memory mode (no cache miss)
-n_regfile_gating_group                    4 # group of lanes that should be read/written together)
-gpgpu_clock_gated_reg_file                    0 # enable clock gated reg file for power calculations
-gpgpu_clock_gated_lanes                    0 # enable clock gated lanes for power calculations
-gpgpu_shader_registers                32768 # Number of registers per shader core. Limits number of concurrent CTAs. (default 8192)
-gpgpu_shader_cta                       8 # Maximum number of concurrent CTAs in shader (default 8)
-gpgpu_num_cta_barriers                   16 # Maximum number of named barriers per CTA (default 16)
-gpgpu_n_clusters                      15 # number of processing clusters
-gpgpu_n_cores_per_cluster                    1 # number of simd cores per cluster
-gpgpu_n_cluster_ejection_buffer_size                    8 # number of packets in ejection buffer
-gpgpu_n_ldst_response_buffer_size                    2 # number of response packets in ld/st unit ejection buffer
-gpgpu_shmem_size                   16384 # Size of shared memory per shader core (default 16kB)
-gpgpu_shmem_size                   49152 # Size of shared memory per shader core (default 16kB)
-gpgpu_shmem_size_PrefL1                16384 # Size of shared memory per shader core (default 16kB)
-gpgpu_shmem_size_PrefShared                16384 # Size of shared memory per shader core (default 16kB)
-gpgpu_shmem_num_banks                   32 # Number of banks in the shared memory in each shader core (default 16)
-gpgpu_shmem_limited_broadcast                    0 # Limit shared memory to do one broadcast per cycle (default on)
-gpgpu_shmem_warp_parts                    1 # Number of portions a warp is divided into for shared memory bank conflict check 
-gpgpu_warpdistro_shader                   -1 # Specify which shader core to collect the warp size distribution from
-gpgpu_warp_issue_shader                    0 # Specify which shader core to collect the warp issue distribution from
-gpgpu_local_mem_map                    1 # Mapping from local memory space address to simulated GPU physical address space (default = enabled)
-gpgpu_num_reg_banks                   16 # Number of register banks (default = 8)
-gpgpu_reg_bank_use_warp_id                    0 # Use warp ID in mapping registers to banks (default = off)
-gpgpu_operand_collector_num_units_sp                    6 # number of collector units (default = 4)
-gpgpu_operand_collector_num_units_sfu                    8 # number of collector units (default = 4)
-gpgpu_operand_collector_num_units_mem                    2 # number of collector units (default = 2)
-gpgpu_operand_collector_num_units_gen                    0 # number of collector units (default = 0)
-gpgpu_operand_collector_num_in_ports_sp                    2 # number of collector unit in ports (default = 1)
-gpgpu_operand_collector_num_in_ports_sfu                    1 # number of collector unit in ports (default = 1)
-gpgpu_operand_collector_num_in_ports_mem                    1 # number of collector unit in ports (default = 1)
-gpgpu_operand_collector_num_in_ports_gen                    0 # number of collector unit in ports (default = 0)
-gpgpu_operand_collector_num_out_ports_sp                    2 # number of collector unit in ports (default = 1)
-gpgpu_operand_collector_num_out_ports_sfu                    1 # number of collector unit in ports (default = 1)
-gpgpu_operand_collector_num_out_ports_mem                    1 # number of collector unit in ports (default = 1)
-gpgpu_operand_collector_num_out_ports_gen                    0 # number of collector unit in ports (default = 0)
-gpgpu_coalesce_arch                   13 # Coalescing arch (default = 13, anything else is off for now)
-gpgpu_num_sched_per_core                    2 # Number of warp schedulers per core
-gpgpu_max_insn_issue_per_warp                    1 # Max number of instructions that can be issued per warp in one cycle by scheduler
-gpgpu_simt_core_sim_order                    1 # Select the simulation order of cores in a cluster (0=Fix, 1=Round-Robin)
-gpgpu_pipeline_widths        2,1,1,2,1,1,2 # Pipeline widths ID_OC_SP,ID_OC_SFU,ID_OC_MEM,OC_EX_SP,OC_EX_SFU,OC_EX_MEM,EX_WB
-gpgpu_num_sp_units                     2 # Number of SP units (default=1)
-gpgpu_num_sfu_units                    1 # Number of SF units (default=1)
-gpgpu_num_mem_units                    1 # Number if ldst units (default=1) WARNING: not hooked up to anything
-gpgpu_scheduler                      gto # Scheduler configuration: < lrr | gto | two_level_active > If two_level_active:<num_active_warps>:<inner_prioritization>:<outer_prioritization>For complete list of prioritization values see shader.h enum scheduler_prioritization_typeDefault: gto
-gpgpu_dram_scheduler                    1 # 0 = fifo, 1 = FR-FCFS (defaul)
-gpgpu_dram_partition_queues              8:8:8:8 # i2$:$2d:d2$:$2i
-l2_ideal                               0 # Use a ideal L2 cache that always hit
-gpgpu_cache:dl2     64:128:8,L:B:m:W:L,A:32:4,4:0,32 # unified banked L2 data cache config  {<nsets>:<bsize>:<assoc>,<rep>:<wr>:<alloc>:<wr_alloc>,<mshr>:<N>:<merge>,<mq>}
-gpgpu_cache:dl2_texture_only                    0 # L2 cache used for texture only
-gpgpu_n_mem                            6 # number of memory modules (e.g. memory controllers) in gpu
-gpgpu_n_sub_partition_per_mchannel                    2 # number of memory subpartition in each memory module
-gpgpu_n_mem_per_ctrlr                    2 # number of memory chips per memory controller
-gpgpu_memlatency_stat                   14 # track and display latency statistics 0x2 enables MC, 0x4 enables queue logs
-gpgpu_frfcfs_dram_sched_queue_size                   16 # 0 = unlimited (default); # entries per chip
-gpgpu_dram_return_queue_size                   84 # 0 = unlimited (default); # entries per chip
-gpgpu_dram_buswidth                    4 # default = 4 bytes (8 bytes per cycle at DDR)
-gpgpu_dram_burst_length                    8 # Burst length of each DRAM request (default = 4 data bus cycle)
-dram_data_command_freq_ratio                    4 # Frequency ratio between DRAM data bus and command bus (default = 2 times, i.e. DDR)
-gpgpu_dram_timing_opt nbk=16:CCD=2:RRD=6:RCD=12:RAS=28:RP=12:RC=40: CL=12:WL=4:CDLR=5:WR=12:nbkgrp=4:CCDL=3:RTPL=2 # DRAM timing parameters = {nbk:tCCD:tRRD:tRCD:tRAS:tRP:tRC:CL:WL:tCDLR:tWR:nbkgrp:tCCDL:tRTPL}
-rop_latency                          120 # ROP queue latency (default 85)
-dram_latency                         100 # DRAM latency (default 30)
-gpgpu_mem_addr_mapping dramid@8;00000000.00000000.00000000.00000000.0000RRRR.RRRRRRRR.BBBCCCCB.CCSSSSSS # mapping memory address to dram model {dramid@<start bit>;<memory address map>}
-gpgpu_mem_addr_test                    0 # run sweep test to check address mapping for aliased address
-gpgpu_mem_address_mask                    1 # 0 = old addressing mask, 1 = new addressing mask, 2 = new add. mask + flipped bank sel and chip sel bits
-gpuwattch_xml_file  gpuwattch_gtx480.xml # GPUWattch XML file
-power_simulation_enabled                    1 # Turn on power simulator (1=On, 0=Off)
-power_per_cycle_dump                    0 # Dump detailed power output each cycle
-power_trace_enabled                    0 # produce a file for the power trace (1=On, 0=Off)
-power_trace_zlevel                     6 # Compression level of the power trace output log (0=no comp, 9=highest)
-steady_power_levels_enabled                    0 # produce a file for the steady power levels (1=On, 0=Off)
-steady_state_definition                  8:4 # allowed deviation:number of samples
-gpgpu_max_cycle                        0 # terminates gpu simulation early (0 = no limit)
-gpgpu_max_insn                         0 # terminates gpu simulation early (0 = no limit)
-gpgpu_max_cta                          0 # terminates gpu simulation early (0 = no limit)
-gpgpu_runtime_stat                   500 # display runtime statistics such as dram utilization {<freq>:<flag>}
-liveness_message_freq                    1 # Minimum number of seconds between simulation liveness messages (0 = always print)
-gpgpu_flush_l1_cache                    0 # Flush L1 cache at the end of each kernel call
-gpgpu_flush_l2_cache                    0 # Flush L2 cache at the end of each kernel call
-gpgpu_deadlock_detect                    1 # Stop the simulation at deadlock (1=on (default), 0=off)
-gpgpu_ptx_instruction_classification                    0 # if enabled will classify ptx instruction types per kernel (Max 255 kernels now)
-gpgpu_ptx_sim_mode                     0 # Select between Performance (default) or Functional simulation (1)
-gpgpu_clock_domains 700.0:700.0:700.0:700.0 # Clock Domain Frequencies in MhZ {<Core Clock>:<ICNT Clock>:<L2 Clock>:<DRAM Clock>}
-gpgpu_max_concurrent_kernel                    8 # maximum kernels that can run concurrently on GPU
-gpgpu_cflog_interval                    0 # Interval between each snapshot in control flow logger
-visualizer_enabled                     0 # Turn on visualizer output (1=On, 0=Off)
-visualizer_outputfile                 NULL # Specifies the output log file for visualizer
-visualizer_zlevel                      6 # Compression level of the visualizer output log (0=no comp, 9=highest)
-trace_enabled                          0 # Turn on traces
-trace_components                    none # comma seperated list of traces to enable. Complete list found in trace_streams.tup. Default none
-trace_sampling_core                    0 # The core which is printed using CORE_DPRINTF. Default 0
-trace_sampling_memory_partition                   -1 # The memory partition which is printed using MEMPART_DPRINTF. Default -1 (i.e. all)
-enable_ptx_file_line_stats                    1 # Turn on PTX source line statistic profiling. (1 = On)
-ptx_line_stats_filename gpgpu_inst_stats.txt # Output file for PTX source line statistics.
-save_embedded_ptx                      0 # saves ptx files embedded in binary as <n>.ptx
-keep                                   0 # keep intermediate files created by GPGPU-Sim when interfacing with external programs
-gpgpu_ptx_save_converted_ptxplus                    0 # Saved converted ptxplus to a file
-ptx_opcode_latency_int         4,13,4,5,145 # Opcode latencies for integers <ADD,MAX,MUL,MAD,DIV>Default 1,1,19,25,145
-ptx_opcode_latency_fp          4,13,4,5,39 # Opcode latencies for single precision floating points <ADD,MAX,MUL,MAD,DIV>Default 1,1,1,1,30
-ptx_opcode_latency_dp         8,19,8,8,330 # Opcode latencies for double precision floating points <ADD,MAX,MUL,MAD,DIV>Default 8,8,8,8,335
-ptx_opcode_initiation_int            1,2,2,1,8 # Opcode initiation intervals for integers <ADD,MAX,MUL,MAD,DIV>Default 1,1,4,4,32
-ptx_opcode_initiation_fp            1,2,1,1,4 # Opcode initiation intervals for single precision floating points <ADD,MAX,MUL,MAD,DIV>Default 1,1,1,1,5
-ptx_opcode_initiation_dp         8,16,8,8,130 # Opcode initiation intervals for double precision floating points <ADD,MAX,MUL,MAD,DIV>Default 8,8,8,8,130
DRAM Timing Options:
nbk                                    16 # number of banks
CCD                                     2 # column to column delay
RRD                                     6 # minimal delay between activation of rows in different banks
RCD                                    12 # row to column delay
RAS                                    28 # time needed to activate row
RP                                     12 # time needed to precharge (deactivate) row
RC                                     40 # row cycle time
CDLR                                    5 # switching from write to read (changes tWTR)
WR                                     12 # last data-in to row precharge
CL                                     12 # CAS latency
WL                                      4 # Write latency
nbkgrp                                  4 # number of bank groups
CCDL                                    3 # column to column delay between accesses to different bank groups
RTPL                                    2 # read to precharge delay between accesses to different bank groups
Total number of memory sub partition = 12
addr_dec_mask[CHIP]  = 0000000000000000 	high:64 low:0
addr_dec_mask[BK]    = 000000000000e100 	high:16 low:8
addr_dec_mask[ROW]   = 000000000fff0000 	high:28 low:16
addr_dec_mask[COL]   = 0000000000001eff 	high:13 low:0
addr_dec_mask[BURST] = 000000000000003f 	high:6 low:0
sub_partition_id_mask = 0000000000000100
GPGPU-Sim uArch: clock freqs: 700000000.000000:700000000.000000:700000000.000000:700000000.000000
GPGPU-Sim uArch: clock periods: 0.00000000142857142857:0.00000000142857142857:0.00000000142857142857:0.00000000142857142857
*** Initializing Memory Statistics ***
GPGPU-Sim uArch: interconnect node map (shaderID+MemID to icntID)
GPGPU-Sim uArch: Memory nodes ID start from index: 15
GPGPU-Sim uArch:    0   1   2   3   4
GPGPU-Sim uArch:    5   6   7   8   9
GPGPU-Sim uArch:   10  11  12  13  14
GPGPU-Sim uArch:   15  16  17  18  19
GPGPU-Sim uArch:   20  21  22  23  24
GPGPU-Sim uArch:   25  26
GPGPU-Sim uArch: interconnect node reverse map (icntID to shaderID+MemID)
GPGPU-Sim uArch: Memory nodes start from ID: 15
GPGPU-Sim uArch:    0   1   2   3   4
GPGPU-Sim uArch:    5   6   7   8   9
GPGPU-Sim uArch:   10  11  12  13  14
GPGPU-Sim uArch:   15  16  17  18  19
GPGPU-Sim uArch:   20  21  22  23  24
GPGPU-Sim uArch:   25  26
20ca3b5bfeb128b0910ff77bfd9979fb  /home/gpgpu-sim/Documents/Dynamic_GPU_Cache_Bypass_Project/benchmarks/test/hotspot-rodinia-3.1
GPGPU-Sim uArch: performance model initialization complete.
GPGPU-Sim PTX: __cudaRegisterFatBinary, fat_cubin_handle = 1, filename=hotspot.cu
self exe links to: /home/gpgpu-sim/Documents/Dynamic_GPU_Cache_Bypass_Project/benchmarks/test/hotspot-rodinia-3.1
Running md5sum using "md5sum /home/gpgpu-sim/Documents/Dynamic_GPU_Cache_Bypass_Project/benchmarks/test/hotspot-rodinia-3.1 "
Running cuobjdump using "$CUDA_INSTALL_PATH/bin/cuobjdump -ptx -elf -sass /home/gpgpu-sim/Documents/Dynamic_GPU_Cache_Bypass_Project/benchmarks/test/hotspot-rodinia-3.1 > _cuobjdump_complete_output_hVMyZo"
Parsing file _cuobjdump_complete_output_hVMyZo
######### cuobjdump parser ########
## Adding new section ELF
Adding arch: sm_30
Adding identifier: hotspot.cu
## Adding new section PTX
Adding ptx filename: _cuobjdump_1.ptx
Adding arch: sm_30
Adding identifier: hotspot.cu
## Adding new section ELF
Adding arch: sm_13
Adding identifier: hotspot.cu
## Adding new section PTX
Adding ptx filename: _cuobjdump_2.ptx
Adding arch: sm_13
Adding identifier: hotspot.cu
## Adding new section ELF
Adding arch: sm_20
Adding identifier: hotspot.cu
## Adding new section PTX
Adding ptx filename: _cuobjdump_3.ptx
Adding arch: sm_20
Adding identifier: hotspot.cu
## Adding new section ELF
Adding arch: sm_10
Adding identifier: hotspot.cu
## Adding new section PTX
Adding ptx filename: _cuobjdump_4.ptx
Adding arch: sm_10
Adding identifier: hotspot.cu
Done parsing!!!
GPGPU-Sim PTX: __cudaRegisterFunction _Z14calculate_tempiPfS_S_iiiiffffff : hostFun 0x0x401390, fat_cubin_handle = 1
GPGPU-Sim PTX: allocating shared region for "__cuda_local_var_17095_39_non_const_temp_on_cuda" from 0x0 to 0x400 (shared memory space)
GPGPU-Sim PTX: allocating shared region for "__cuda_local_var_17096_39_non_const_power_on_cuda" from 0x400 to 0x800 (shared memory space)
GPGPU-Sim PTX: allocating shared region for "__cuda_local_var_17097_39_non_const_temp_t" from 0x800 to 0xc00 (shared memory space)
GPGPU-Sim PTX: Warning %temp1 was declared previous at _1.ptx:350 skipping new declaration
GPGPU-Sim PTX: Warning %temp2 was declared previous at _1.ptx:351 skipping new declaration
GPGPU-Sim PTX: instruction assembly for function '_Z14calculate_tempiPfS_S_iiiiffffff'...   done.
GPGPU-Sim PTX: finding reconvergence points for '_Z14calculate_tempiPfS_S_iiiiffffff'...
GPGPU-Sim PTX: Finding dominators for '_Z14calculate_tempiPfS_S_iiiiffffff'...
GPGPU-Sim PTX: Finding immediate dominators for '_Z14calculate_tempiPfS_S_iiiiffffff'...
GPGPU-Sim PTX: Finding postdominators for '_Z14calculate_tempiPfS_S_iiiiffffff'...
GPGPU-Sim PTX: Finding immediate postdominators for '_Z14calculate_tempiPfS_S_iiiiffffff'...
GPGPU-Sim PTX: pre-decoding instructions for '_Z14calculate_tempiPfS_S_iiiiffffff'...
GPGPU-Sim PTX: reconvergence points for _Z14calculate_tempiPfS_S_iiiiffffff...
GPGPU-Sim PTX:  1 (potential) branch divergence @  PC=0x110 (_1.ptx:99) @!%p3 bra BB0_3;
GPGPU-Sim PTX:    immediate post dominator      @  PC=0x238 (_1.ptx:155) bar.sync 0;
GPGPU-Sim PTX:  2 (potential) branch divergence @  PC=0x188 (_1.ptx:123) @!%p6 bra BB0_3;
GPGPU-Sim PTX:    immediate post dominator      @  PC=0x238 (_1.ptx:155) bar.sync 0;
GPGPU-Sim PTX:  3 (potential) branch divergence @  PC=0x3e0 (_1.ptx:223) @%p9 bra BB0_5;
GPGPU-Sim PTX:    immediate post dominator      @  PC=0x760 (_1.ptx:381) cvt.s16.s8 %temp1, %rc7;
GPGPU-Sim PTX:  4 (potential) branch divergence @  PC=0x3e8 (_1.ptx:224) bra.uni BB0_13;
GPGPU-Sim PTX:    immediate post dominator      @  PC=0x760 (_1.ptx:381) cvt.s16.s8 %temp1, %rc7;
GPGPU-Sim PTX:  5 (potential) branch divergence @  PC=0x420 (_1.ptx:236) @!%p12 bra BB0_8;
GPGPU-Sim PTX:    immediate post dominator      @  PC=0x6b0 (_1.ptx:341) bar.sync 0;
GPGPU-Sim PTX:  6 (potential) branch divergence @  PC=0x578 (_1.ptx:292) @%p25 bra BB0_8;
GPGPU-Sim PTX:    immediate post dominator      @  PC=0x6b0 (_1.ptx:341) bar.sync 0;
GPGPU-Sim PTX:  7 (potential) branch divergence @  PC=0x6a0 (_1.ptx:334) bra.uni BB0_9;
GPGPU-Sim PTX:    immediate post dominator      @  PC=0x6b0 (_1.ptx:341) bar.sync 0;
GPGPU-Sim PTX:  8 (potential) branch divergence @  PC=0x6d0 (_1.ptx:346) @%p26 bra BB0_13;
GPGPU-Sim PTX:    immediate post dominator      @  PC=0x760 (_1.ptx:381) cvt.s16.s8 %temp1, %rc7;
GPGPU-Sim PTX:  9 (potential) branch divergence @  PC=0x6f8 (_1.ptx:357) @%p27 bra BB0_12;
GPGPU-Sim PTX:    immediate post dominator      @  PC=0x748 (_1.ptx:372) bar.sync 0;
GPGPU-Sim PTX: 10 (potential) branch divergence @  PC=0x758 (_1.ptx:374) bra.uni BB0_4;
GPGPU-Sim PTX:    immediate post dominator      @  PC=0x3c8 (_1.ptx:219) mov.u32 %r11, %r159;
GPGPU-Sim PTX: 11 (potential) branch divergence @  PC=0x780 (_1.ptx:386) @%p28 bra BB0_15;
GPGPU-Sim PTX:    immediate post dominator      @  PC=0x868 (_1.ptx:432) ret;
GPGPU-Sim PTX: ... end of reconvergence points for _Z14calculate_tempiPfS_S_iiiiffffff
GPGPU-Sim PTX: ... done pre-decoding instructions for '_Z14calculate_tempiPfS_S_iiiiffffff'.
GPGPU-Sim PTX: finished parsing EMBEDDED .ptx file _1.ptx
Adding _cuobjdump_3.ptx with cubin handle 1
GPGPU-Sim PTX: extracting embedded .ptx to temporary file "_ptx_TSdaGb"
Running: cat _ptx_TSdaGb | sed 's/.version 1.5/.version 1.4/' | sed 's/, texmode_independent//' | sed 's/\(\.extern \.const\[1\] .b8 \w\+\)\[\]/\1\[1\]/' | sed 's/const\[.\]/const\[0\]/g' > _ptx2_AdRPmY
GPGPU-Sim PTX: generating ptxinfo using "$CUDA_INSTALL_PATH/bin/ptxas --gpu-name=sm_20 -v _ptx2_AdRPmY --output-file  /dev/null 2> _ptx_TSdaGbinfo"
GPGPU-Sim PTX: Kernel '_Z14calculate_tempiPfS_S_iiiiffffff' : regs=30, lmem=0, smem=3072, cmem=120
GPGPU-Sim PTX: removing ptxinfo using "rm -f _ptx_TSdaGb _ptx2_AdRPmY _ptx_TSdaGbinfo"
GPGPU-Sim PTX: loading globals with explicit initializers... 
GPGPU-Sim PTX: finished loading globals (0 bytes total).
GPGPU-Sim PTX: loading constants with explicit initializers...  done.
WG size of kernel = 16 X 16
pyramidHeight: 2
gridSize: [512, 512]
border:[2, 2]
blockGrid:[43, 43]
targetBlock:[12, 12]
Start computing the transient temperature

GPGPU-Sim PTX: cudaLaunch for 0x0x401390 (mode=performance simulation) on stream 0
GPGPU-Sim PTX: pushing kernel '_Z14calculate_tempiPfS_S_iiiiffffff' to stream 0, gridDim= (43,43,1) blockDim = (16,16,1) 
kernel '_Z14calculate_tempiPfS_S_iiiiffffff' transfer to GPU hardware scheduler
GPGPU-Sim uArch: Shader 1 bind to kernel 1 '_Z14calculate_tempiPfS_S_iiiiffffff'
GPGPU-Sim uArch: CTA/core = 4, limited by: regs
GPGPU-Sim uArch: core:  1, cta: 0 initialized @(1,0)
GPGPU-Sim uArch: Shader 2 bind to kernel 1 '_Z14calculate_tempiPfS_S_iiiiffffff'
GPGPU-Sim uArch: core:  2, cta: 0 initialized @(1,0)
GPGPU-Sim uArch: Shader 3 bind to kernel 1 '_Z14calculate_tempiPfS_S_iiiiffffff'
GPGPU-Sim uArch: core:  3, cta: 0 initialized @(1,0)
GPGPU-Sim uArch: Shader 4 bind to kernel 1 '_Z14calculate_tempiPfS_S_iiiiffffff'
GPGPU-Sim uArch: core:  4, cta: 0 initialized @(1,0)
GPGPU-Sim uArch: Shader 5 bind to kernel 1 '_Z14calculate_tempiPfS_S_iiiiffffff'
GPGPU-Sim uArch: core:  5, cta: 0 initialized @(1,0)
GPGPU-Sim uArch: Shader 6 bind to kernel 1 '_Z14calculate_tempiPfS_S_iiiiffffff'
GPGPU-Sim uArch: core:  6, cta: 0 initialized @(1,0)
GPGPU-Sim uArch: Shader 7 bind to kernel 1 '_Z14calculate_tempiPfS_S_iiiiffffff'
GPGPU-Sim uArch: core:  7, cta: 0 initialized @(1,0)
GPGPU-Sim uArch: Shader 8 bind to kernel 1 '_Z14calculate_tempiPfS_S_iiiiffffff'
GPGPU-Sim uArch: core:  8, cta: 0 initialized @(1,0)
GPGPU-Sim uArch: Shader 9 bind to kernel 1 '_Z14calculate_tempiPfS_S_iiiiffffff'
GPGPU-Sim uArch: core:  9, cta: 0 initialized @(1,0)
GPGPU-Sim uArch: Shader 10 bind to kernel 1 '_Z14calculate_tempiPfS_S_iiiiffffff'
GPGPU-Sim uArch: core: 10, cta: 0 initialized @(1,0)
GPGPU-Sim uArch: Shader 11 bind to kernel 1 '_Z14calculate_tempiPfS_S_iiiiffffff'
GPGPU-Sim uArch: core: 11, cta: 0 initialized @(1,0)
GPGPU-Sim uArch: Shader 12 bind to kernel 1 '_Z14calculate_tempiPfS_S_iiiiffffff'
GPGPU-Sim uArch: core: 12, cta: 0 initialized @(1,0)
GPGPU-Sim uArch: Shader 13 bind to kernel 1 '_Z14calculate_tempiPfS_S_iiiiffffff'
GPGPU-Sim uArch: core: 13, cta: 0 initialized @(1,0)
GPGPU-Sim uArch: Shader 14 bind to kernel 1 '_Z14calculate_tempiPfS_S_iiiiffffff'
GPGPU-Sim uArch: core: 14, cta: 0 initialized @(1,0)
GPGPU-Sim uArch: Shader 0 bind to kernel 1 '_Z14calculate_tempiPfS_S_iiiiffffff'
GPGPU-Sim uArch: core:  0, cta: 0 initialized @(1,0)
GPGPU-Sim uArch: core:  1, cta: 1 initialized @(2,0)
GPGPU-Sim uArch: core:  2, cta: 1 initialized @(2,0)
GPGPU-Sim uArch: core:  3, cta: 1 initialized @(2,0)
GPGPU-Sim uArch: core:  4, cta: 1 initialized @(2,0)
GPGPU-Sim uArch: core:  5, cta: 1 initialized @(2,0)
GPGPU-Sim uArch: core:  6, cta: 1 initialized @(2,0)
GPGPU-Sim uArch: core:  7, cta: 1 initialized @(2,0)
GPGPU-Sim uArch: core:  8, cta: 1 initialized @(2,0)
GPGPU-Sim uArch: core:  9, cta: 1 initialized @(2,0)
GPGPU-Sim uArch: core: 10, cta: 1 initialized @(2,0)
GPGPU-Sim uArch: core: 11, cta: 1 initialized @(2,0)
GPGPU-Sim uArch: core: 12, cta: 1 initialized @(2,0)
GPGPU-Sim uArch: core: 13, cta: 1 initialized @(2,0)
GPGPU-Sim uArch: core: 14, cta: 1 initialized @(2,0)
GPGPU-Sim uArch: core:  0, cta: 1 initialized @(2,0)
GPGPU-Sim uArch: core:  1, cta: 2 initialized @(3,0)
GPGPU-Sim uArch: core:  2, cta: 2 initialized @(3,0)
GPGPU-Sim uArch: core:  3, cta: 2 initialized @(3,0)
GPGPU-Sim uArch: core:  4, cta: 2 initialized @(3,0)
GPGPU-Sim uArch: core:  5, cta: 2 initialized @(3,0)
GPGPU-Sim uArch: core:  6, cta: 2 initialized @(3,0)
GPGPU-Sim uArch: core:  7, cta: 2 initialized @(3,0)
GPGPU-Sim uArch: core:  8, cta: 2 initialized @(3,0)
GPGPU-Sim uArch: core:  9, cta: 2 initialized @(3,0)
GPGPU-Sim uArch: core: 10, cta: 2 initialized @(3,0)
GPGPU-Sim uArch: core: 11, cta: 2 initialized @(3,0)
GPGPU-Sim uArch: core: 12, cta: 2 initialized @(3,0)
GPGPU-Sim uArch: core: 13, cta: 2 initialized @(3,0)
GPGPU-Sim uArch: core: 14, cta: 2 initialized @(3,0)
GPGPU-Sim uArch: core:  0, cta: 2 initialized @(3,0)
GPGPU-Sim uArch: core:  1, cta: 3 initialized @(4,0)
GPGPU-Sim uArch: core:  2, cta: 3 initialized @(4,0)
GPGPU-Sim uArch: core:  3, cta: 3 initialized @(4,0)
GPGPU-Sim uArch: core:  4, cta: 3 initialized @(4,0)
GPGPU-Sim uArch: core:  5, cta: 3 initialized @(4,0)
GPGPU-Sim uArch: core:  6, cta: 3 initialized @(4,0)
GPGPU-Sim uArch: core:  7, cta: 3 initialized @(4,0)
GPGPU-Sim uArch: core:  8, cta: 3 initialized @(4,0)
GPGPU-Sim uArch: core:  9, cta: 3 initialized @(4,0)
GPGPU-Sim uArch: core: 10, cta: 3 initialized @(4,0)
GPGPU-Sim uArch: core: 11, cta: 3 initialized @(4,0)
GPGPU-Sim uArch: core: 12, cta: 3 initialized @(4,0)
GPGPU-Sim uArch: core: 13, cta: 3 initialized @(4,0)
GPGPU-Sim uArch: core: 14, cta: 3 initialized @(4,0)
GPGPU-Sim uArch: core:  0, cta: 3 initialized @(4,0)
GPGPU-Sim uArch: cycles simulated: 500  inst.: 0 (ipc= 0.0) sim_rate=0 (inst/sec) elapsed = 0:0:00:02 / Thu Jan 31 00:43:08 2019
GPGPU-Sim PTX: 100000 instructions simulated : ctaid=(40,0,0) tid=(15,13,0)
GPGPU-Sim PTX: 200000 instructions simulated : ctaid=(10,1,0) tid=(15,15,0)
GPGPU-Sim uArch: cycles simulated: 1000  inst.: 221216 (ipc=221.2) sim_rate=55304 (inst/sec) elapsed = 0:0:00:04 / Thu Jan 31 00:43:10 2019
GPGPU-Sim PTX: 300000 instructions simulated : ctaid=(1,0,0) tid=(15,11,0)
GPGPU-Sim PTX: 400000 instructions simulated : ctaid=(31,0,0) tid=(15,5,0)
GPGPU-Sim uArch: cycles simulated: 1500  inst.: 462784 (ipc=308.5) sim_rate=92556 (inst/sec) elapsed = 0:0:00:05 / Thu Jan 31 00:43:11 2019
GPGPU-Sim PTX: 500000 instructions simulated : ctaid=(19,0,0) tid=(15,9,0)
GPGPU-Sim PTX: 600000 instructions simulated : ctaid=(12,1,0) tid=(15,9,0)
GPGPU-Sim PTX: 700000 instructions simulated : ctaid=(35,0,0) tid=(7,14,0)
GPGPU-Sim PTX: 800000 instructions simulated : ctaid=(9,1,0) tid=(15,14,0)
GPGPU-Sim uArch: cycles simulated: 2000  inst.: 805772 (ipc=402.9) sim_rate=115110 (inst/sec) elapsed = 0:0:00:07 / Thu Jan 31 00:43:13 2019
GPGPU-Sim PTX: 900000 instructions simulated : ctaid=(5,1,0) tid=(11,10,0)
GPGPU-Sim uArch: cycles simulated: 2500  inst.: 907392 (ipc=363.0) sim_rate=113424 (inst/sec) elapsed = 0:0:00:08 / Thu Jan 31 00:43:14 2019
GPGPU-Sim PTX: 1000000 instructions simulated : ctaid=(20,0,0) tid=(7,14,0)
GPGPU-Sim uArch: cycles simulated: 3000  inst.: 979932 (ipc=326.6) sim_rate=108881 (inst/sec) elapsed = 0:0:00:09 / Thu Jan 31 00:43:15 2019
GPGPU-Sim uArch: cycles simulated: 3500  inst.: 1065344 (ipc=304.4) sim_rate=106534 (inst/sec) elapsed = 0:0:00:10 / Thu Jan 31 00:43:16 2019
GPGPU-Sim PTX: 1100000 instructions simulated : ctaid=(26,0,0) tid=(15,11,0)
GPGPU-Sim PTX: 1200000 instructions simulated : ctaid=(25,0,0) tid=(15,2,0)
GPGPU-Sim PTX: 1300000 instructions simulated : ctaid=(26,0,0) tid=(15,14,0)
GPGPU-Sim uArch: cycles simulated: 4000  inst.: 1327936 (ipc=332.0) sim_rate=120721 (inst/sec) elapsed = 0:0:00:11 / Thu Jan 31 00:43:17 2019
GPGPU-Sim PTX: 1400000 instructions simulated : ctaid=(10,1,0) tid=(15,0,0)
GPGPU-Sim PTX: 1500000 instructions simulated : ctaid=(42,0,0) tid=(15,0,0)
GPGPU-Sim PTX: 1600000 instructions simulated : ctaid=(23,0,0) tid=(15,10,0)
GPGPU-Sim uArch: cycles simulated: 4500  inst.: 1638976 (ipc=364.2) sim_rate=126075 (inst/sec) elapsed = 0:0:00:13 / Thu Jan 31 00:43:19 2019
GPGPU-Sim PTX: 1700000 instructions simulated : ctaid=(32,0,0) tid=(15,8,0)
GPGPU-Sim PTX: 1800000 instructions simulated : ctaid=(42,0,0) tid=(15,2,0)
GPGPU-Sim PTX: 1900000 instructions simulated : ctaid=(3,0,0) tid=(15,2,0)
GPGPU-Sim uArch: cycles simulated: 5000  inst.: 1926076 (ipc=385.2) sim_rate=137576 (inst/sec) elapsed = 0:0:00:14 / Thu Jan 31 00:43:20 2019
GPGPU-Sim PTX: 2000000 instructions simulated : ctaid=(2,0,0) tid=(10,1,0)
GPGPU-Sim PTX: 2100000 instructions simulated : ctaid=(15,0,0) tid=(4,12,0)
GPGPU-Sim uArch: cycles simulated: 5500  inst.: 2093480 (ipc=380.6) sim_rate=139565 (inst/sec) elapsed = 0:0:00:15 / Thu Jan 31 00:43:21 2019
GPGPU-Sim PTX: 2200000 instructions simulated : ctaid=(15,1,0) tid=(2,5,0)
GPGPU-Sim PTX: 2300000 instructions simulated : ctaid=(36,0,0) tid=(14,1,0)
GPGPU-Sim uArch: cycles simulated: 6000  inst.: 2303872 (ipc=384.0) sim_rate=135521 (inst/sec) elapsed = 0:0:00:17 / Thu Jan 31 00:43:23 2019
GPGPU-Sim PTX: 2400000 instructions simulated : ctaid=(37,0,0) tid=(12,12,0)
GPGPU-Sim PTX: 2500000 instructions simulated : ctaid=(22,0,0) tid=(5,12,0)
GPGPU-Sim uArch: cycles simulated: 6500  inst.: 2517028 (ipc=387.2) sim_rate=139834 (inst/sec) elapsed = 0:0:00:18 / Thu Jan 31 00:43:24 2019
GPGPU-Sim PTX: 2600000 instructions simulated : ctaid=(15,0,0) tid=(12,6,0)
GPGPU-Sim PTX: 2700000 instructions simulated : ctaid=(12,1,0) tid=(4,8,0)
GPGPU-Sim uArch: cycles simulated: 7000  inst.: 2724547 (ipc=389.2) sim_rate=143397 (inst/sec) elapsed = 0:0:00:19 / Thu Jan 31 00:43:25 2019
GPGPU-Sim PTX: 2800000 instructions simulated : ctaid=(25,0,0) tid=(11,8,0)
GPGPU-Sim PTX: 2900000 instructions simulated : ctaid=(16,1,0) tid=(13,4,0)
GPGPU-Sim PTX: 3000000 instructions simulated : ctaid=(13,1,0) tid=(14,11,0)
GPGPU-Sim uArch: cycles simulated: 7500  inst.: 2956062 (ipc=394.1) sim_rate=140764 (inst/sec) elapsed = 0:0:00:21 / Thu Jan 31 00:43:27 2019
GPGPU-Sim PTX: 3100000 instructions simulated : ctaid=(13,0,0) tid=(4,4,0)
GPGPU-Sim PTX: 3200000 instructions simulated : ctaid=(20,0,0) tid=(4,10,0)
GPGPU-Sim PTX: 3300000 instructions simulated : ctaid=(7,1,0) tid=(1,4,0)
GPGPU-Sim uArch: cycles simulated: 8000  inst.: 3274918 (ipc=409.4) sim_rate=142387 (inst/sec) elapsed = 0:0:00:23 / Thu Jan 31 00:43:29 2019
GPGPU-Sim PTX: 3400000 instructions simulated : ctaid=(38,0,0) tid=(9,0,0)
GPGPU-Sim PTX: 3500000 instructions simulated : ctaid=(37,0,0) tid=(5,13,0)
GPGPU-Sim PTX: 3600000 instructions simulated : ctaid=(21,0,0) tid=(5,13,0)
GPGPU-Sim uArch: cycles simulated: 8500  inst.: 3590410 (ipc=422.4) sim_rate=149600 (inst/sec) elapsed = 0:0:00:24 / Thu Jan 31 00:43:30 2019
GPGPU-Sim PTX: 3700000 instructions simulated : ctaid=(13,0,0) tid=(5,4,0)
GPGPU-Sim PTX: 3800000 instructions simulated : ctaid=(1,0,0) tid=(11,5,0)
GPGPU-Sim PTX: 3900000 instructions simulated : ctaid=(33,0,0) tid=(11,11,0)
GPGPU-Sim uArch: cycles simulated: 9000  inst.: 3844336 (ipc=427.1) sim_rate=147859 (inst/sec) elapsed = 0:0:00:26 / Thu Jan 31 00:43:32 2019
GPGPU-Sim PTX: 4000000 instructions simulated : ctaid=(39,0,0) tid=(11,14,0)
GPGPU-Sim PTX: 4100000 instructions simulated : ctaid=(8,0,0) tid=(9,13,0)
GPGPU-Sim PTX: 4200000 instructions simulated : ctaid=(30,0,0) tid=(13,12,0)
GPGPU-Sim uArch: cycles simulated: 9500  inst.: 4144150 (ipc=436.2) sim_rate=148005 (inst/sec) elapsed = 0:0:00:28 / Thu Jan 31 00:43:34 2019
GPGPU-Sim PTX: 4300000 instructions simulated : ctaid=(28,0,0) tid=(3,9,0)
GPGPU-Sim PTX: 4400000 instructions simulated : ctaid=(1,1,0) tid=(5,7,0)
GPGPU-Sim uArch: cycles simulated: 10000  inst.: 4389198 (ipc=438.9) sim_rate=151351 (inst/sec) elapsed = 0:0:00:29 / Thu Jan 31 00:43:35 2019
GPGPU-Sim PTX: 4500000 instructions simulated : ctaid=(32,0,0) tid=(7,2,0)
GPGPU-Sim uArch: Shader 8 finished CTA #0 (10058,0), 3 CTAs running
GPGPU-Sim uArch: core:  8, cta: 0 initialized @(10059,0)
GPGPU-Sim uArch: Shader 12 finished CTA #0 (10152,0), 3 CTAs running
GPGPU-Sim uArch: core: 12, cta: 0 initialized @(10153,0)
GPGPU-Sim uArch: Shader 5 finished CTA #0 (10153,0), 3 CTAs running
GPGPU-Sim uArch: core:  5, cta: 0 initialized @(10154,0)
GPGPU-Sim uArch: Shader 4 finished CTA #1 (10174,0), 3 CTAs running
GPGPU-Sim uArch: core:  4, cta: 1 initialized @(10175,0)
GPGPU-Sim uArch: Shader 13 finished CTA #0 (10196,0), 3 CTAs running
GPGPU-Sim uArch: core: 13, cta: 0 initialized @(10197,0)
GPGPU-Sim uArch: Shader 4 finished CTA #0 (10228,0), 3 CTAs running
GPGPU-Sim uArch: core:  4, cta: 0 initialized @(10229,0)
GPGPU-Sim uArch: Shader 5 finished CTA #1 (10229,0), 3 CTAs running
GPGPU-Sim uArch: core:  5, cta: 1 initialized @(10230,0)
GPGPU-Sim uArch: Shader 2 finished CTA #1 (10236,0), 3 CTAs running
GPGPU-Sim uArch: core:  2, cta: 1 initialized @(10237,0)
GPGPU-Sim uArch: Shader 0 finished CTA #0 (10274,0), 3 CTAs running
GPGPU-Sim uArch: core:  0, cta: 0 initialized @(10275,0)
GPGPU-Sim uArch: Shader 1 finished CTA #0 (10285,0), 3 CTAs running
GPGPU-Sim uArch: core:  1, cta: 0 initialized @(10286,0)
GPGPU-Sim uArch: Shader 1 finished CTA #1 (10295,0), 3 CTAs running
GPGPU-Sim uArch: core:  1, cta: 1 initialized @(10296,0)
GPGPU-Sim uArch: Shader 2 finished CTA #0 (10344,0), 3 CTAs running
GPGPU-Sim uArch: core:  2, cta: 0 initialized @(10345,0)
GPGPU-Sim uArch: Shader 14 finished CTA #0 (10356,0), 3 CTAs running
GPGPU-Sim uArch: core: 14, cta: 0 initialized @(10357,0)
GPGPU-Sim PTX: 4600000 instructions simulated : ctaid=(19,1,0) tid=(13,5,0)
GPGPU-Sim uArch: Shader 7 finished CTA #0 (10361,0), 3 CTAs running
GPGPU-Sim uArch: core:  7, cta: 0 initialized @(10362,0)
GPGPU-Sim uArch: Shader 9 finished CTA #0 (10371,0), 3 CTAs running
GPGPU-Sim uArch: core:  9, cta: 0 initialized @(10372,0)
GPGPU-Sim uArch: Shader 6 finished CTA #1 (10375,0), 3 CTAs running
GPGPU-Sim uArch: core:  6, cta: 1 initialized @(10376,0)
GPGPU-Sim uArch: Shader 3 finished CTA #1 (10378,0), 3 CTAs running
GPGPU-Sim uArch: core:  3, cta: 1 initialized @(10379,0)
GPGPU-Sim uArch: Shader 8 finished CTA #1 (10402,0), 3 CTAs running
GPGPU-Sim uArch: core:  8, cta: 1 initialized @(10403,0)
GPGPU-Sim uArch: Shader 10 finished CTA #0 (10419,0), 3 CTAs running
GPGPU-Sim uArch: core: 10, cta: 0 initialized @(10420,0)
GPGPU-Sim uArch: Shader 3 finished CTA #0 (10481,0), 3 CTAs running
GPGPU-Sim uArch: core:  3, cta: 0 initialized @(10482,0)
GPGPU-Sim uArch: Shader 13 finished CTA #1 (10492,0), 3 CTAs running
GPGPU-Sim uArch: core: 13, cta: 1 initialized @(10493,0)
GPGPU-Sim uArch: Shader 6 finished CTA #0 (10498,0), 3 CTAs running
GPGPU-Sim uArch: core:  6, cta: 0 initialized @(10499,0)
GPGPU-Sim uArch: cycles simulated: 10500  inst.: 4562886 (ipc=434.6) sim_rate=152096 (inst/sec) elapsed = 0:0:00:30 / Thu Jan 31 00:43:36 2019
GPGPU-Sim uArch: Shader 12 finished CTA #1 (10502,0), 3 CTAs running
GPGPU-Sim uArch: core: 12, cta: 1 initialized @(10503,0)
GPGPU-Sim uArch: Shader 11 finished CTA #0 (10513,0), 3 CTAs running
GPGPU-Sim uArch: core: 11, cta: 0 initialized @(10514,0)
GPGPU-Sim uArch: Shader 9 finished CTA #1 (10538,0), 3 CTAs running
GPGPU-Sim uArch: core:  9, cta: 1 initialized @(10539,0)
GPGPU-Sim uArch: Shader 10 finished CTA #1 (10541,0), 3 CTAs running
GPGPU-Sim uArch: core: 10, cta: 1 initialized @(10542,0)
GPGPU-Sim PTX: 4700000 instructions simulated : ctaid=(31,1,0) tid=(13,4,0)
GPGPU-Sim uArch: Shader 14 finished CTA #1 (10547,0), 3 CTAs running
GPGPU-Sim uArch: core: 14, cta: 1 initialized @(10548,0)
GPGPU-Sim uArch: Shader 0 finished CTA #1 (10551,0), 3 CTAs running
GPGPU-Sim uArch: core:  0, cta: 1 initialized @(10552,0)
GPGPU-Sim uArch: Shader 7 finished CTA #1 (10555,0), 3 CTAs running
GPGPU-Sim uArch: core:  7, cta: 1 initialized @(10556,0)
GPGPU-Sim uArch: Shader 11 finished CTA #1 (10557,0), 3 CTAs running
GPGPU-Sim uArch: core: 11, cta: 1 initialized @(10558,0)
GPGPU-Sim uArch: Shader 1 finished CTA #2 (10586,0), 3 CTAs running
GPGPU-Sim uArch: core:  1, cta: 2 initialized @(10587,0)
GPGPU-Sim uArch: Shader 2 finished CTA #2 (10588,0), 3 CTAs running
GPGPU-Sim uArch: core:  2, cta: 2 initialized @(10589,0)
GPGPU-Sim uArch: Shader 14 finished CTA #2 (10682,0), 3 CTAs running
GPGPU-Sim uArch: core: 14, cta: 2 initialized @(10683,0)
GPGPU-Sim uArch: Shader 12 finished CTA #2 (10709,0), 3 CTAs running
GPGPU-Sim uArch: core: 12, cta: 2 initialized @(10710,0)
GPGPU-Sim PTX: 4800000 instructions simulated : ctaid=(33,1,0) tid=(13,13,0)
GPGPU-Sim uArch: Shader 0 finished CTA #2 (10727,0), 3 CTAs running
GPGPU-Sim uArch: core:  0, cta: 2 initialized @(10728,0)
GPGPU-Sim uArch: Shader 10 finished CTA #2 (10729,0), 3 CTAs running
GPGPU-Sim uArch: core: 10, cta: 2 initialized @(10730,0)
GPGPU-Sim uArch: Shader 9 finished CTA #2 (10736,0), 3 CTAs running
GPGPU-Sim uArch: core:  9, cta: 2 initialized @(10737,0)
GPGPU-Sim uArch: Shader 13 finished CTA #2 (10755,0), 3 CTAs running
GPGPU-Sim uArch: core: 13, cta: 2 initialized @(10756,0)
GPGPU-Sim uArch: Shader 5 finished CTA #2 (10765,0), 3 CTAs running
GPGPU-Sim uArch: core:  5, cta: 2 initialized @(10766,0)
GPGPU-Sim uArch: Shader 11 finished CTA #2 (10768,0), 3 CTAs running
GPGPU-Sim uArch: core: 11, cta: 2 initialized @(10769,0)
GPGPU-Sim uArch: Shader 8 finished CTA #2 (10791,0), 3 CTAs running
GPGPU-Sim uArch: core:  8, cta: 2 initialized @(10792,0)
GPGPU-Sim uArch: Shader 6 finished CTA #2 (10809,0), 3 CTAs running
GPGPU-Sim uArch: core:  6, cta: 2 initialized @(10810,0)
GPGPU-Sim uArch: Shader 4 finished CTA #2 (10831,0), 3 CTAs running
GPGPU-Sim uArch: core:  4, cta: 2 initialized @(10832,0)
GPGPU-Sim uArch: Shader 3 finished CTA #2 (10849,0), 3 CTAs running
GPGPU-Sim uArch: core:  3, cta: 2 initialized @(10850,0)
GPGPU-Sim uArch: Shader 7 finished CTA #2 (10854,0), 3 CTAs running
GPGPU-Sim uArch: core:  7, cta: 2 initialized @(10855,0)
GPGPU-Sim PTX: 4900000 instructions simulated : ctaid=(27,1,0) tid=(13,3,0)
GPGPU-Sim uArch: Shader 1 finished CTA #3 (10966,0), 3 CTAs running
GPGPU-Sim uArch: core:  1, cta: 3 initialized @(10967,0)
GPGPU-Sim uArch: cycles simulated: 11000  inst.: 4854878 (ipc=441.4) sim_rate=151714 (inst/sec) elapsed = 0:0:00:32 / Thu Jan 31 00:43:38 2019
GPGPU-Sim uArch: Shader 2 finished CTA #3 (11006,0), 3 CTAs running
GPGPU-Sim uArch: core:  2, cta: 3 initialized @(11007,0)
GPGPU-Sim uArch: Shader 6 finished CTA #3 (11007,0), 3 CTAs running
GPGPU-Sim uArch: core:  6, cta: 3 initialized @(11008,0)
GPGPU-Sim uArch: Shader 10 finished CTA #3 (11022,0), 3 CTAs running
GPGPU-Sim uArch: core: 10, cta: 3 initialized @(11023,0)
GPGPU-Sim uArch: Shader 7 finished CTA #3 (11027,0), 3 CTAs running
GPGPU-Sim uArch: core:  7, cta: 3 initialized @(11028,0)
GPGPU-Sim PTX: 5000000 instructions simulated : ctaid=(38,1,0) tid=(13,1,0)
GPGPU-Sim uArch: Shader 3 finished CTA #3 (11085,0), 3 CTAs running
GPGPU-Sim uArch: Shader 5 finished CTA #3 (11085,0), 3 CTAs running
GPGPU-Sim uArch: core:  3, cta: 3 initialized @(11086,0)
GPGPU-Sim uArch: core:  5, cta: 3 initialized @(11086,0)
GPGPU-Sim uArch: Shader 8 finished CTA #3 (11101,0), 3 CTAs running
GPGPU-Sim uArch: core:  8, cta: 3 initialized @(11102,0)
GPGPU-Sim uArch: Shader 13 finished CTA #3 (11119,0), 3 CTAs running
GPGPU-Sim uArch: core: 13, cta: 3 initialized @(11120,0)
GPGPU-Sim uArch: Shader 0 finished CTA #3 (11137,0), 3 CTAs running
GPGPU-Sim uArch: core:  0, cta: 3 initialized @(11138,0)
GPGPU-Sim uArch: Shader 4 finished CTA #3 (11145,0), 3 CTAs running
GPGPU-Sim uArch: core:  4, cta: 3 initialized @(11146,0)
GPGPU-Sim uArch: Shader 14 finished CTA #3 (11155,0), 3 CTAs running
GPGPU-Sim uArch: core: 14, cta: 3 initialized @(11156,0)
GPGPU-Sim uArch: Shader 11 finished CTA #3 (11167,0), 3 CTAs running
GPGPU-Sim uArch: core: 11, cta: 3 initialized @(11168,0)
GPGPU-Sim PTX: 5100000 instructions simulated : ctaid=(31,1,0) tid=(9,14,0)
GPGPU-Sim uArch: Shader 9 finished CTA #3 (11185,0), 3 CTAs running
GPGPU-Sim uArch: core:  9, cta: 3 initialized @(11186,0)
GPGPU-Sim uArch: Shader 12 finished CTA #3 (11202,0), 3 CTAs running
GPGPU-Sim uArch: core: 12, cta: 3 initialized @(11203,0)
GPGPU-Sim PTX: 5200000 instructions simulated : ctaid=(32,1,0) tid=(1,2,0)
GPGPU-Sim PTX: 5300000 instructions simulated : ctaid=(17,2,0) tid=(1,8,0)
GPGPU-Sim uArch: cycles simulated: 11500  inst.: 5199718 (ipc=452.1) sim_rate=152932 (inst/sec) elapsed = 0:0:00:34 / Thu Jan 31 00:43:40 2019
GPGPU-Sim PTX: 5400000 instructions simulated : ctaid=(28,2,0) tid=(5,1,0)
GPGPU-Sim PTX: 5500000 instructions simulated : ctaid=(27,2,0) tid=(13,10,0)
GPGPU-Sim PTX: 5600000 instructions simulated : ctaid=(19,2,0) tid=(13,6,0)
GPGPU-Sim uArch: cycles simulated: 12000  inst.: 5524554 (ipc=460.4) sim_rate=153459 (inst/sec) elapsed = 0:0:00:36 / Thu Jan 31 00:43:42 2019
GPGPU-Sim PTX: 5700000 instructions simulated : ctaid=(21,1,0) tid=(9,11,0)
GPGPU-Sim PTX: 5800000 instructions simulated : ctaid=(28,2,0) tid=(5,2,0)
GPGPU-Sim PTX: 5900000 instructions simulated : ctaid=(26,1,0) tid=(13,8,0)
GPGPU-Sim uArch: cycles simulated: 12500  inst.: 5751422 (ipc=460.1) sim_rate=155443 (inst/sec) elapsed = 0:0:00:37 / Thu Jan 31 00:43:43 2019
GPGPU-Sim PTX: 6000000 instructions simulated : ctaid=(28,1,0) tid=(7,3,0)
GPGPU-Sim PTX: 6100000 instructions simulated : ctaid=(38,1,0) tid=(13,0,0)
GPGPU-Sim PTX: 6200000 instructions simulated : ctaid=(31,2,0) tid=(1,10,0)
GPGPU-Sim uArch: cycles simulated: 13000  inst.: 6111446 (ipc=470.1) sim_rate=156703 (inst/sec) elapsed = 0:0:00:39 / Thu Jan 31 00:43:45 2019
GPGPU-Sim PTX: 6300000 instructions simulated : ctaid=(24,1,0) tid=(10,0,0)
GPGPU-Sim PTX: 6400000 instructions simulated : ctaid=(29,1,0) tid=(12,12,0)
GPGPU-Sim PTX: 6500000 instructions simulated : ctaid=(1,2,0) tid=(14,9,0)
GPGPU-Sim PTX: 6600000 instructions simulated : ctaid=(0,2,0) tid=(3,0,0)
GPGPU-Sim uArch: cycles simulated: 13500  inst.: 6449160 (ipc=477.7) sim_rate=161229 (inst/sec) elapsed = 0:0:00:40 / Thu Jan 31 00:43:46 2019
GPGPU-Sim PTX: 6700000 instructions simulated : ctaid=(35,1,0) tid=(6,10,0)
GPGPU-Sim PTX: 6800000 instructions simulated : ctaid=(29,2,0) tid=(3,1,0)
GPGPU-Sim PTX: 6900000 instructions simulated : ctaid=(30,1,0) tid=(14,6,0)
GPGPU-Sim uArch: cycles simulated: 14000  inst.: 6739058 (ipc=481.4) sim_rate=160453 (inst/sec) elapsed = 0:0:00:42 / Thu Jan 31 00:43:48 2019
GPGPU-Sim PTX: 7000000 instructions simulated : ctaid=(40,1,0) tid=(13,7,0)
GPGPU-Sim PTX: 7100000 instructions simulated : ctaid=(12,2,0) tid=(2,1,0)
GPGPU-Sim PTX: 7200000 instructions simulated : ctaid=(24,1,0) tid=(9,12,0)
GPGPU-Sim uArch: cycles simulated: 14500  inst.: 7059397 (ipc=486.9) sim_rate=160440 (inst/sec) elapsed = 0:0:00:44 / Thu Jan 31 00:43:50 2019
GPGPU-Sim PTX: 7300000 instructions simulated : ctaid=(35,1,0) tid=(7,7,0)
GPGPU-Sim uArch: Shader 8 finished CTA #0 (14645,0), 3 CTAs running
GPGPU-Sim uArch: core:  8, cta: 0 initialized @(14646,0)
GPGPU-Sim PTX: 7400000 instructions simulated : ctaid=(6,2,0) tid=(10,15,0)
GPGPU-Sim PTX: 7500000 instructions simulated : ctaid=(26,1,0) tid=(3,12,0)
GPGPU-Sim uArch: cycles simulated: 15000  inst.: 7357149 (ipc=490.5) sim_rate=163492 (inst/sec) elapsed = 0:0:00:45 / Thu Jan 31 00:43:51 2019
GPGPU-Sim PTX: 7600000 instructions simulated : ctaid=(23,1,0) tid=(13,12,0)
GPGPU-Sim PTX: 7700000 instructions simulated : ctaid=(6,2,0) tid=(8,3,0)
GPGPU-Sim PTX: 7800000 instructions simulated : ctaid=(34,1,0) tid=(5,12,0)
GPGPU-Sim uArch: Shader 4 finished CTA #1 (15474,0), 3 CTAs running
GPGPU-Sim uArch: core:  4, cta: 1 initialized @(15475,0)
GPGPU-Sim uArch: Shader 5 finished CTA #0 (15478,0), 3 CTAs running
GPGPU-Sim uArch: core:  5, cta: 0 initialized @(15479,0)
GPGPU-Sim uArch: cycles simulated: 15500  inst.: 7701524 (ipc=496.9) sim_rate=163862 (inst/sec) elapsed = 0:0:00:47 / Thu Jan 31 00:43:53 2019
GPGPU-Sim PTX: 7900000 instructions simulated : ctaid=(39,1,0) tid=(7,10,0)
GPGPU-Sim uArch: Shader 12 finished CTA #0 (15572,0), 3 CTAs running
GPGPU-Sim uArch: core: 12, cta: 0 initialized @(15573,0)
GPGPU-Sim uArch: Shader 0 finished CTA #0 (15579,0), 3 CTAs running
GPGPU-Sim uArch: core:  0, cta: 0 initialized @(15580,0)
GPGPU-Sim PTX: 8000000 instructions simulated : ctaid=(34,1,0) tid=(13,12,0)
GPGPU-Sim uArch: Shader 2 finished CTA #1 (15695,0), 3 CTAs running
GPGPU-Sim uArch: core:  2, cta: 1 initialized @(15696,0)
GPGPU-Sim uArch: Shader 3 finished CTA #1 (15748,0), 3 CTAs running
GPGPU-Sim uArch: core:  3, cta: 1 initialized @(15749,0)
GPGPU-Sim uArch: Shader 13 finished CTA #0 (15754,0), 3 CTAs running
GPGPU-Sim uArch: core: 13, cta: 0 initialized @(15755,0)
GPGPU-Sim uArch: Shader 7 finished CTA #0 (15773,0), 3 CTAs running
GPGPU-Sim uArch: core:  7, cta: 0 initialized @(15774,0)
GPGPU-Sim uArch: Shader 11 finished CTA #0 (15775,0), 3 CTAs running
GPGPU-Sim uArch: core: 11, cta: 0 initialized @(15776,0)
GPGPU-Sim uArch: Shader 1 finished CTA #0 (15807,0), 3 CTAs running
GPGPU-Sim uArch: core:  1, cta: 0 initialized @(15808,0)
GPGPU-Sim uArch: Shader 14 finished CTA #0 (15810,0), 3 CTAs running
GPGPU-Sim uArch: core: 14, cta: 0 initialized @(15811,0)
GPGPU-Sim uArch: Shader 9 finished CTA #0 (15829,0), 3 CTAs running
GPGPU-Sim uArch: core:  9, cta: 0 initialized @(15830,0)
GPGPU-Sim PTX: 8100000 instructions simulated : ctaid=(37,2,0) tid=(5,13,0)
GPGPU-Sim uArch: Shader 10 finished CTA #0 (15844,0), 3 CTAs running
GPGPU-Sim uArch: core: 10, cta: 0 initialized @(15845,0)
GPGPU-Sim uArch: Shader 6 finished CTA #1 (15871,0), 3 CTAs running
GPGPU-Sim uArch: core:  6, cta: 1 initialized @(15872,0)
GPGPU-Sim PTX: 8200000 instructions simulated : ctaid=(22,2,0) tid=(14,5,0)
GPGPU-Sim uArch: cycles simulated: 16000  inst.: 8017082 (ipc=501.1) sim_rate=163613 (inst/sec) elapsed = 0:0:00:49 / Thu Jan 31 00:43:55 2019
GPGPU-Sim PTX: 8300000 instructions simulated : ctaid=(36,1,0) tid=(9,14,0)
GPGPU-Sim PTX: 8400000 instructions simulated : ctaid=(1,3,0) tid=(11,0,0)
GPGPU-Sim uArch: Shader 5 finished CTA #1 (16301,0), 3 CTAs running
GPGPU-Sim uArch: core:  5, cta: 1 initialized @(16302,0)
GPGPU-Sim uArch: Shader 4 finished CTA #0 (16380,0), 3 CTAs running
GPGPU-Sim uArch: core:  4, cta: 0 initialized @(16381,0)
GPGPU-Sim PTX: 8500000 instructions simulated : ctaid=(24,2,0) tid=(14,4,0)
GPGPU-Sim uArch: Shader 13 finished CTA #1 (16435,0), 3 CTAs running
GPGPU-Sim uArch: core: 13, cta: 1 initialized @(16436,0)
GPGPU-Sim uArch: Shader 2 finished CTA #0 (16457,0), 3 CTAs running
GPGPU-Sim uArch: core:  2, cta: 0 initialized @(16458,0)
GPGPU-Sim uArch: cycles simulated: 16500  inst.: 8368674 (ipc=507.2) sim_rate=164091 (inst/sec) elapsed = 0:0:00:51 / Thu Jan 31 00:43:57 2019
GPGPU-Sim uArch: Shader 12 finished CTA #1 (16511,0), 3 CTAs running
GPGPU-Sim uArch: core: 12, cta: 1 initialized @(16512,0)
GPGPU-Sim uArch: Shader 8 finished CTA #1 (16535,0), 3 CTAs running
GPGPU-Sim uArch: core:  8, cta: 1 initialized @(16536,0)
GPGPU-Sim PTX: 8600000 instructions simulated : ctaid=(15,2,0) tid=(9,11,0)
GPGPU-Sim uArch: Shader 10 finished CTA #1 (16570,0), 3 CTAs running
GPGPU-Sim uArch: core: 10, cta: 1 initialized @(16571,0)
GPGPU-Sim uArch: Shader 1 finished CTA #1 (16592,0), 3 CTAs running
GPGPU-Sim uArch: core:  1, cta: 1 initialized @(16593,0)
GPGPU-Sim uArch: Shader 3 finished CTA #0 (16596,0), 3 CTAs running
GPGPU-Sim uArch: core:  3, cta: 0 initialized @(16597,0)
GPGPU-Sim PTX: 8700000 instructions simulated : ctaid=(16,2,0) tid=(1,1,0)
GPGPU-Sim uArch: Shader 6 finished CTA #0 (16724,0), 3 CTAs running
GPGPU-Sim uArch: core:  6, cta: 0 initialized @(16725,0)
GPGPU-Sim uArch: Shader 9 finished CTA #1 (16777,0), 3 CTAs running
GPGPU-Sim uArch: core:  9, cta: 1 initialized @(16778,0)
GPGPU-Sim PTX: 8800000 instructions simulated : ctaid=(5,2,0) tid=(3,4,0)
GPGPU-Sim uArch: Shader 0 finished CTA #1 (16895,0), 3 CTAs running
GPGPU-Sim uArch: core:  0, cta: 1 initialized @(16896,0)
GPGPU-Sim PTX: 8900000 instructions simulated : ctaid=(16,2,0) tid=(13,6,0)
GPGPU-Sim uArch: Shader 14 finished CTA #1 (16996,0), 3 CTAs running
GPGPU-Sim uArch: core: 14, cta: 1 initialized @(16997,0)
GPGPU-Sim uArch: cycles simulated: 17000  inst.: 8724688 (ipc=513.2) sim_rate=164616 (inst/sec) elapsed = 0:0:00:53 / Thu Jan 31 00:43:59 2019
GPGPU-Sim uArch: Shader 11 finished CTA #1 (17059,0), 3 CTAs running
GPGPU-Sim uArch: core: 11, cta: 1 initialized @(17060,0)
GPGPU-Sim uArch: Shader 7 finished CTA #1 (17076,0), 3 CTAs running
GPGPU-Sim uArch: core:  7, cta: 1 initialized @(17077,0)
GPGPU-Sim PTX: 9000000 instructions simulated : ctaid=(42,2,0) tid=(1,15,0)
GPGPU-Sim PTX: 9100000 instructions simulated : ctaid=(18,2,0) tid=(3,9,0)
GPGPU-Sim PTX: 9200000 instructions simulated : ctaid=(16,2,0) tid=(5,11,0)
GPGPU-Sim uArch: cycles simulated: 17500  inst.: 9039870 (ipc=516.6) sim_rate=167405 (inst/sec) elapsed = 0:0:00:54 / Thu Jan 31 00:44:00 2019
GPGPU-Sim PTX: 9300000 instructions simulated : ctaid=(11,2,0) tid=(3,11,0)
GPGPU-Sim PTX: 9400000 instructions simulated : ctaid=(17,2,0) tid=(3,1,0)
GPGPU-Sim uArch: Shader 8 finished CTA #2 (17866,0), 3 CTAs running
GPGPU-Sim uArch: core:  8, cta: 2 initialized @(17867,0)
GPGPU-Sim PTX: 9500000 instructions simulated : ctaid=(30,2,0) tid=(4,2,0)
GPGPU-Sim uArch: cycles simulated: 18000  inst.: 9352742 (ipc=519.6) sim_rate=167013 (inst/sec) elapsed = 0:0:00:56 / Thu Jan 31 00:44:02 2019
GPGPU-Sim PTX: 9600000 instructions simulated : ctaid=(11,2,0) tid=(7,7,0)
GPGPU-Sim PTX: 9700000 instructions simulated : ctaid=(1,3,0) tid=(1,4,0)
GPGPU-Sim uArch: Shader 4 finished CTA #2 (18185,0), 3 CTAs running
GPGPU-Sim uArch: core:  4, cta: 2 initialized @(18186,0)
GPGPU-Sim uArch: Shader 5 finished CTA #2 (18212,0), 3 CTAs running
GPGPU-Sim uArch: core:  5, cta: 2 initialized @(18213,0)
GPGPU-Sim uArch: Shader 3 finished CTA #2 (18262,0), 3 CTAs running
GPGPU-Sim uArch: core:  3, cta: 2 initialized @(18263,0)
GPGPU-Sim uArch: Shader 1 finished CTA #2 (18273,0), 3 CTAs running
GPGPU-Sim uArch: core:  1, cta: 2 initialized @(18274,0)
GPGPU-Sim uArch: Shader 6 finished CTA #2 (18284,0), 3 CTAs running
GPGPU-Sim uArch: core:  6, cta: 2 initialized @(18285,0)
GPGPU-Sim PTX: 9800000 instructions simulated : ctaid=(36,2,0) tid=(13,12,0)
GPGPU-Sim uArch: Shader 11 finished CTA #2 (18334,0), 3 CTAs running
GPGPU-Sim uArch: Shader 13 finished CTA #2 (18334,0), 3 CTAs running
GPGPU-Sim uArch: core: 11, cta: 2 initialized @(18335,0)
GPGPU-Sim uArch: core: 13, cta: 2 initialized @(18335,0)
GPGPU-Sim uArch: Shader 7 finished CTA #2 (18411,0), 3 CTAs running
GPGPU-Sim uArch: core:  7, cta: 2 initialized @(18412,0)
GPGPU-Sim uArch: Shader 2 finished CTA #2 (18443,0), 3 CTAs running
GPGPU-Sim uArch: core:  2, cta: 2 initialized @(18444,0)
GPGPU-Sim uArch: Shader 12 finished CTA #2 (18462,0), 3 CTAs running
GPGPU-Sim uArch: core: 12, cta: 2 initialized @(18463,0)
GPGPU-Sim PTX: 9900000 instructions simulated : ctaid=(42,2,0) tid=(1,8,0)
GPGPU-Sim uArch: cycles simulated: 18500  inst.: 9683114 (ipc=523.4) sim_rate=166950 (inst/sec) elapsed = 0:0:00:58 / Thu Jan 31 00:44:04 2019
GPGPU-Sim uArch: Shader 10 finished CTA #2 (18533,0), 3 CTAs running
GPGPU-Sim uArch: core: 10, cta: 2 initialized @(18534,0)
GPGPU-Sim uArch: Shader 0 finished CTA #2 (18582,0), 3 CTAs running
GPGPU-Sim uArch: core:  0, cta: 2 initialized @(18583,0)
GPGPU-Sim uArch: Shader 14 finished CTA #2 (18591,0), 3 CTAs running
GPGPU-Sim uArch: core: 14, cta: 2 initialized @(18592,0)
GPGPU-Sim uArch: Shader 9 finished CTA #2 (18594,0), 3 CTAs running
GPGPU-Sim uArch: core:  9, cta: 2 initialized @(18595,0)
GPGPU-Sim PTX: 10000000 instructions simulated : ctaid=(41,2,0) tid=(13,8,0)
GPGPU-Sim PTX: 10100000 instructions simulated : ctaid=(41,2,0) tid=(10,2,0)
GPGPU-Sim PTX: 10200000 instructions simulated : ctaid=(0,3,0) tid=(9,10,0)
GPGPU-Sim uArch: cycles simulated: 19000  inst.: 10047962 (ipc=528.8) sim_rate=167466 (inst/sec) elapsed = 0:0:01:00 / Thu Jan 31 00:44:06 2019
GPGPU-Sim PTX: 10300000 instructions simulated : ctaid=(41,2,0) tid=(2,2,0)
GPGPU-Sim uArch: Shader 1 finished CTA #3 (19145,0), 3 CTAs running
GPGPU-Sim uArch: core:  1, cta: 3 initialized @(19146,0)
GPGPU-Sim PTX: 10400000 instructions simulated : ctaid=(32,3,0) tid=(1,6,0)
GPGPU-Sim uArch: Shader 2 finished CTA #3 (19285,0), 3 CTAs running
GPGPU-Sim uArch: core:  2, cta: 3 initialized @(19286,0)
GPGPU-Sim PTX: 10500000 instructions simulated : ctaid=(0,3,0) tid=(14,4,0)
GPGPU-Sim uArch: Shader 5 finished CTA #3 (19373,0), 3 CTAs running
GPGPU-Sim uArch: core:  5, cta: 3 initialized @(19374,0)
GPGPU-Sim uArch: Shader 4 finished CTA #3 (19375,0), 3 CTAs running
GPGPU-Sim uArch: core:  4, cta: 3 initialized @(19376,0)
GPGPU-Sim uArch: Shader 0 finished CTA #3 (19407,0), 3 CTAs running
GPGPU-Sim uArch: core:  0, cta: 3 initialized @(19408,0)
GPGPU-Sim uArch: Shader 8 finished CTA #3 (19417,0), 3 CTAs running
GPGPU-Sim uArch: core:  8, cta: 3 initialized @(19418,0)
GPGPU-Sim uArch: Shader 13 finished CTA #3 (19425,0), 3 CTAs running
GPGPU-Sim uArch: core: 13, cta: 3 initialized @(19426,0)
GPGPU-Sim PTX: 10600000 instructions simulated : ctaid=(7,3,0) tid=(3,12,0)
GPGPU-Sim uArch: cycles simulated: 19500  inst.: 10391134 (ipc=532.9) sim_rate=167598 (inst/sec) elapsed = 0:0:01:02 / Thu Jan 31 00:44:08 2019
GPGPU-Sim uArch: Shader 12 finished CTA #3 (19513,0), 3 CTAs running
GPGPU-Sim uArch: core: 12, cta: 3 initialized @(19514,0)
GPGPU-Sim uArch: Shader 14 finished CTA #3 (19547,0), 3 CTAs running
GPGPU-Sim uArch: core: 14, cta: 3 initialized @(19548,0)
GPGPU-Sim PTX: 10700000 instructions simulated : ctaid=(19,3,0) tid=(12,0,0)
GPGPU-Sim uArch: Shader 10 finished CTA #3 (19588,0), 3 CTAs running
GPGPU-Sim uArch: core: 10, cta: 3 initialized @(19589,0)
GPGPU-Sim uArch: Shader 6 finished CTA #3 (19681,0), 3 CTAs running
GPGPU-Sim uArch: core:  6, cta: 3 initialized @(19682,0)
GPGPU-Sim uArch: Shader 9 finished CTA #3 (19684,0), 3 CTAs running
GPGPU-Sim uArch: core:  9, cta: 3 initialized @(19685,0)
GPGPU-Sim uArch: Shader 3 finished CTA #3 (19692,0), 3 CTAs running
GPGPU-Sim uArch: core:  3, cta: 3 initialized @(19693,0)
GPGPU-Sim PTX: 10800000 instructions simulated : ctaid=(35,3,0) tid=(5,2,0)
GPGPU-Sim PTX: 10900000 instructions simulated : ctaid=(12,3,0) tid=(7,11,0)
GPGPU-Sim uArch: Shader 7 finished CTA #3 (19885,0), 3 CTAs running
GPGPU-Sim uArch: core:  7, cta: 3 initialized @(19886,0)
GPGPU-Sim uArch: Shader 11 finished CTA #3 (19886,0), 3 CTAs running
GPGPU-Sim uArch: core: 11, cta: 3 initialized @(19887,0)
GPGPU-Sim PTX: 11000000 instructions simulated : ctaid=(4,3,0) tid=(2,13,0)
GPGPU-Sim uArch: cycles simulated: 20000  inst.: 10756734 (ipc=537.8) sim_rate=168073 (inst/sec) elapsed = 0:0:01:04 / Thu Jan 31 00:44:10 2019
GPGPU-Sim PTX: 11100000 instructions simulated : ctaid=(38,3,0) tid=(6,1,0)
GPGPU-Sim PTX: 11200000 instructions simulated : ctaid=(16,3,0) tid=(14,3,0)
GPGPU-Sim PTX: 11300000 instructions simulated : ctaid=(7,3,0) tid=(3,15,0)
GPGPU-Sim uArch: cycles simulated: 20500  inst.: 11117892 (ipc=542.3) sim_rate=171044 (inst/sec) elapsed = 0:0:01:05 / Thu Jan 31 00:44:11 2019
GPGPU-Sim PTX: 11400000 instructions simulated : ctaid=(1,3,0) tid=(12,3,0)
GPGPU-Sim PTX: 11500000 instructions simulated : ctaid=(36,2,0) tid=(13,9,0)
GPGPU-Sim PTX: 11600000 instructions simulated : ctaid=(18,3,0) tid=(4,15,0)
GPGPU-Sim uArch: cycles simulated: 21000  inst.: 11408814 (ipc=543.3) sim_rate=170280 (inst/sec) elapsed = 0:0:01:07 / Thu Jan 31 00:44:13 2019
GPGPU-Sim PTX: 11700000 instructions simulated : ctaid=(41,3,0) tid=(15,7,0)
GPGPU-Sim PTX: 11800000 instructions simulated : ctaid=(3,3,0) tid=(7,5,0)
GPGPU-Sim PTX: 11900000 instructions simulated : ctaid=(26,3,0) tid=(5,1,0)
GPGPU-Sim uArch: Shader 8 finished CTA #0 (21420,0), 3 CTAs running
GPGPU-Sim uArch: core:  8, cta: 0 initialized @(21421,0)
GPGPU-Sim PTX: 12000000 instructions simulated : ctaid=(26,3,0) tid=(7,9,0)
GPGPU-Sim uArch: Shader 4 finished CTA #1 (21489,0), 3 CTAs running
GPGPU-Sim uArch: core:  4, cta: 1 initialized @(21490,0)
GPGPU-Sim uArch: Shader 5 finished CTA #0 (21498,0), 3 CTAs running
GPGPU-Sim uArch: core:  5, cta: 0 initialized @(21499,0)
GPGPU-Sim uArch: cycles simulated: 21500  inst.: 11731984 (ipc=545.7) sim_rate=170028 (inst/sec) elapsed = 0:0:01:09 / Thu Jan 31 00:44:15 2019
GPGPU-Sim PTX: 12100000 instructions simulated : ctaid=(1,4,0) tid=(11,14,0)
GPGPU-Sim uArch: Shader 1 finished CTA #0 (21636,0), 3 CTAs running
GPGPU-Sim uArch: core:  1, cta: 0 initialized @(21637,0)
GPGPU-Sim PTX: 12200000 instructions simulated : ctaid=(32,3,0) tid=(14,5,0)
GPGPU-Sim uArch: Shader 13 finished CTA #0 (21756,0), 3 CTAs running
GPGPU-Sim uArch: core: 13, cta: 0 initialized @(21757,0)
GPGPU-Sim uArch: Shader 10 finished CTA #0 (21799,0), 3 CTAs running
GPGPU-Sim uArch: core: 10, cta: 0 initialized @(21800,0)
GPGPU-Sim uArch: Shader 9 finished CTA #0 (21817,0), 3 CTAs running
GPGPU-Sim uArch: core:  9, cta: 0 initialized @(21818,0)
GPGPU-Sim uArch: Shader 12 finished CTA #0 (21841,0), 3 CTAs running
GPGPU-Sim uArch: core: 12, cta: 0 initialized @(21842,0)
GPGPU-Sim uArch: Shader 11 finished CTA #0 (21873,0), 3 CTAs running
GPGPU-Sim uArch: core: 11, cta: 0 initialized @(21874,0)
GPGPU-Sim PTX: 12300000 instructions simulated : ctaid=(8,3,0) tid=(13,6,0)
GPGPU-Sim uArch: Shader 14 finished CTA #0 (21896,0), 3 CTAs running
GPGPU-Sim uArch: core: 14, cta: 0 initialized @(21897,0)
GPGPU-Sim uArch: Shader 2 finished CTA #1 (21903,0), 3 CTAs running
GPGPU-Sim uArch: core:  2, cta: 1 initialized @(21904,0)
GPGPU-Sim uArch: Shader 3 finished CTA #1 (21929,0), 3 CTAs running
GPGPU-Sim uArch: core:  3, cta: 1 initialized @(21930,0)
GPGPU-Sim uArch: Shader 7 finished CTA #0 (21938,0), 3 CTAs running
GPGPU-Sim uArch: core:  7, cta: 0 initialized @(21939,0)
GPGPU-Sim uArch: Shader 0 finished CTA #0 (21946,0), 3 CTAs running
GPGPU-Sim uArch: core:  0, cta: 0 initialized @(21947,0)
GPGPU-Sim uArch: Shader 6 finished CTA #1 (21991,0), 3 CTAs running
GPGPU-Sim uArch: core:  6, cta: 1 initialized @(21992,0)
GPGPU-Sim uArch: cycles simulated: 22000  inst.: 12087402 (ipc=549.4) sim_rate=170245 (inst/sec) elapsed = 0:0:01:11 / Thu Jan 31 00:44:17 2019
GPGPU-Sim PTX: 12400000 instructions simulated : ctaid=(19,3,0) tid=(13,9,0)
GPGPU-Sim PTX: 12500000 instructions simulated : ctaid=(33,3,0) tid=(10,6,0)
GPGPU-Sim PTX: 12600000 instructions simulated : ctaid=(22,4,0) tid=(13,0,0)
GPGPU-Sim PTX: 12700000 instructions simulated : ctaid=(10,3,0) tid=(5,8,0)
GPGPU-Sim uArch: cycles simulated: 22500  inst.: 12417846 (ipc=551.9) sim_rate=170107 (inst/sec) elapsed = 0:0:01:13 / Thu Jan 31 00:44:19 2019
GPGPU-Sim PTX: 12800000 instructions simulated : ctaid=(10,3,0) tid=(7,13,0)
GPGPU-Sim PTX: 12900000 instructions simulated : ctaid=(21,4,0) tid=(15,10,0)
GPGPU-Sim PTX: 13000000 instructions simulated : ctaid=(31,3,0) tid=(5,11,0)
GPGPU-Sim uArch: cycles simulated: 23000  inst.: 12723640 (ipc=553.2) sim_rate=169648 (inst/sec) elapsed = 0:0:01:15 / Thu Jan 31 00:44:21 2019
GPGPU-Sim uArch: Shader 4 finished CTA #0 (23048,0), 3 CTAs running
GPGPU-Sim uArch: core:  4, cta: 0 initialized @(23049,0)
GPGPU-Sim uArch: Shader 5 finished CTA #1 (23079,0), 3 CTAs running
GPGPU-Sim uArch: core:  5, cta: 1 initialized @(23080,0)
GPGPU-Sim PTX: 13100000 instructions simulated : ctaid=(28,3,0) tid=(5,4,0)
GPGPU-Sim uArch: Shader 8 finished CTA #1 (23188,0), 3 CTAs running
GPGPU-Sim uArch: core:  8, cta: 1 initialized @(23189,0)
GPGPU-Sim uArch: Shader 12 finished CTA #1 (23225,0), 3 CTAs running
GPGPU-Sim uArch: core: 12, cta: 1 initialized @(23226,0)
GPGPU-Sim uArch: Shader 2 finished CTA #0 (23227,0), 3 CTAs running
GPGPU-Sim uArch: core:  2, cta: 0 initialized @(23228,0)
GPGPU-Sim uArch: Shader 13 finished CTA #1 (23229,0), 3 CTAs running
GPGPU-Sim uArch: core: 13, cta: 1 initialized @(23230,0)
GPGPU-Sim PTX: 13200000 instructions simulated : ctaid=(6,4,0) tid=(11,8,0)
GPGPU-Sim uArch: Shader 10 finished CTA #1 (23247,0), 3 CTAs running
GPGPU-Sim uArch: core: 10, cta: 1 initialized @(23248,0)
GPGPU-Sim PTX: 13300000 instructions simulated : ctaid=(0,4,0) tid=(11,12,0)
GPGPU-Sim uArch: Shader 1 finished CTA #1 (23397,0), 3 CTAs running
GPGPU-Sim uArch: core:  1, cta: 1 initialized @(23398,0)
GPGPU-Sim uArch: Shader 6 finished CTA #0 (23443,0), 3 CTAs running
GPGPU-Sim uArch: core:  6, cta: 0 initialized @(23444,0)
GPGPU-Sim uArch: Shader 3 finished CTA #0 (23446,0), 3 CTAs running
GPGPU-Sim uArch: core:  3, cta: 0 initialized @(23447,0)
GPGPU-Sim uArch: Shader 0 finished CTA #1 (23462,0), 3 CTAs running
GPGPU-Sim uArch: core:  0, cta: 1 initialized @(23463,0)
GPGPU-Sim uArch: cycles simulated: 23500  inst.: 13075684 (ipc=556.4) sim_rate=169814 (inst/sec) elapsed = 0:0:01:17 / Thu Jan 31 00:44:23 2019
GPGPU-Sim PTX: 13400000 instructions simulated : ctaid=(32,3,0) tid=(7,2,0)
GPGPU-Sim uArch: Shader 11 finished CTA #1 (23549,0), 3 CTAs running
GPGPU-Sim uArch: core: 11, cta: 1 initialized @(23550,0)
GPGPU-Sim uArch: Shader 14 finished CTA #1 (23602,0), 3 CTAs running
GPGPU-Sim uArch: core: 14, cta: 1 initialized @(23603,0)
GPGPU-Sim uArch: Shader 9 finished CTA #1 (23618,0), 3 CTAs running
GPGPU-Sim uArch: core:  9, cta: 1 initialized @(23619,0)
GPGPU-Sim PTX: 13500000 instructions simulated : ctaid=(33,4,0) tid=(3,8,0)
GPGPU-Sim uArch: Shader 7 finished CTA #1 (23675,0), 3 CTAs running
GPGPU-Sim uArch: core:  7, cta: 1 initialized @(23676,0)
GPGPU-Sim PTX: 13600000 instructions simulated : ctaid=(0,4,0) tid=(15,14,0)
GPGPU-Sim PTX: 13700000 instructions simulated : ctaid=(21,3,0) tid=(7,2,0)
GPGPU-Sim uArch: cycles simulated: 24000  inst.: 13427093 (ipc=559.5) sim_rate=169963 (inst/sec) elapsed = 0:0:01:19 / Thu Jan 31 00:44:25 2019
GPGPU-Sim PTX: 13800000 instructions simulated : ctaid=(24,4,0) tid=(2,9,0)
GPGPU-Sim PTX: 13900000 instructions simulated : ctaid=(0,4,0) tid=(13,11,0)
GPGPU-Sim PTX: 14000000 instructions simulated : ctaid=(32,4,0) tid=(0,12,0)
GPGPU-Sim uArch: cycles simulated: 24500  inst.: 13729260 (ipc=560.4) sim_rate=169497 (inst/sec) elapsed = 0:0:01:21 / Thu Jan 31 00:44:27 2019
GPGPU-Sim PTX: 14100000 instructions simulated : ctaid=(37,4,0) tid=(5,0,0)
GPGPU-Sim PTX: 14200000 instructions simulated : ctaid=(11,4,0) tid=(7,14,0)
GPGPU-Sim PTX: 14300000 instructions simulated : ctaid=(8,4,0) tid=(4,3,0)
GPGPU-Sim uArch: Shader 4 finished CTA #2 (24851,0), 3 CTAs running
GPGPU-Sim uArch: core:  4, cta: 2 initialized @(24852,0)
GPGPU-Sim uArch: Shader 5 finished CTA #2 (24894,0), 3 CTAs running
GPGPU-Sim uArch: core:  5, cta: 2 initialized @(24895,0)
GPGPU-Sim uArch: Shader 12 finished CTA #2 (24943,0), 3 CTAs running
GPGPU-Sim uArch: core: 12, cta: 2 initialized @(24944,0)
GPGPU-Sim uArch: Shader 10 finished CTA #2 (24964,0), 3 CTAs running
GPGPU-Sim uArch: core: 10, cta: 2 initialized @(24965,0)
GPGPU-Sim uArch: Shader 2 finished CTA #2 (24976,0), 3 CTAs running
GPGPU-Sim uArch: core:  2, cta: 2 initialized @(24977,0)
GPGPU-Sim PTX: 14400000 instructions simulated : ctaid=(41,3,0) tid=(0,2,0)
GPGPU-Sim uArch: cycles simulated: 25000  inst.: 14071930 (ipc=562.9) sim_rate=169541 (inst/sec) elapsed = 0:0:01:23 / Thu Jan 31 00:44:29 2019
GPGPU-Sim uArch: Shader 1 finished CTA #2 (25022,0), 3 CTAs running
GPGPU-Sim uArch: core:  1, cta: 2 initialized @(25023,0)
GPGPU-Sim uArch: Shader 8 finished CTA #2 (25041,0), 3 CTAs running
GPGPU-Sim uArch: core:  8, cta: 2 initialized @(25042,0)
GPGPU-Sim uArch: Shader 0 finished CTA #2 (25054,0), 3 CTAs running
GPGPU-Sim uArch: core:  0, cta: 2 initialized @(25055,0)
GPGPU-Sim uArch: Shader 13 finished CTA #2 (25091,0), 3 CTAs running
GPGPU-Sim uArch: core: 13, cta: 2 initialized @(25092,0)
GPGPU-Sim PTX: 14500000 instructions simulated : ctaid=(19,4,0) tid=(14,8,0)
GPGPU-Sim uArch: Shader 3 finished CTA #2 (25137,0), 3 CTAs running
GPGPU-Sim uArch: core:  3, cta: 2 initialized @(25138,0)
GPGPU-Sim uArch: Shader 6 finished CTA #2 (25138,0), 3 CTAs running
GPGPU-Sim uArch: core:  6, cta: 2 initialized @(25139,0)
GPGPU-Sim uArch: Shader 7 finished CTA #2 (25184,0), 3 CTAs running
GPGPU-Sim uArch: core:  7, cta: 2 initialized @(25185,0)
GPGPU-Sim PTX: 14600000 instructions simulated : ctaid=(5,4,0) tid=(7,10,0)
GPGPU-Sim uArch: Shader 14 finished CTA #2 (25272,0), 3 CTAs running
GPGPU-Sim uArch: core: 14, cta: 2 initialized @(25273,0)
GPGPU-Sim uArch: Shader 9 finished CTA #2 (25286,0), 3 CTAs running
GPGPU-Sim uArch: core:  9, cta: 2 initialized @(25287,0)
GPGPU-Sim PTX: 14700000 instructions simulated : ctaid=(3,4,0) tid=(6,8,0)
GPGPU-Sim uArch: Shader 11 finished CTA #2 (25378,0), 3 CTAs running
GPGPU-Sim uArch: core: 11, cta: 2 initialized @(25379,0)
GPGPU-Sim uArch: cycles simulated: 25500  inst.: 14440500 (ipc=566.3) sim_rate=169888 (inst/sec) elapsed = 0:0:01:25 / Thu Jan 31 00:44:31 2019
GPGPU-Sim PTX: 14800000 instructions simulated : ctaid=(6,4,0) tid=(11,8,0)
GPGPU-Sim PTX: 14900000 instructions simulated : ctaid=(0,4,0) tid=(11,12,0)
GPGPU-Sim PTX: 15000000 instructions simulated : ctaid=(29,4,0) tid=(3,11,0)
GPGPU-Sim PTX: 15100000 instructions simulated : ctaid=(17,4,0) tid=(14,13,0)
GPGPU-Sim uArch: cycles simulated: 26000  inst.: 14757620 (ipc=567.6) sim_rate=169627 (inst/sec) elapsed = 0:0:01:27 / Thu Jan 31 00:44:33 2019
GPGPU-Sim PTX: 15200000 instructions simulated : ctaid=(41,4,0) tid=(3,6,0)
GPGPU-Sim PTX: 15300000 instructions simulated : ctaid=(21,4,0) tid=(10,14,0)
GPGPU-Sim PTX: 15400000 instructions simulated : ctaid=(2,4,0) tid=(9,8,0)
GPGPU-Sim uArch: Shader 1 finished CTA #3 (26462,0), 3 CTAs running
GPGPU-Sim uArch: core:  1, cta: 3 initialized @(26463,0)
GPGPU-Sim uArch: cycles simulated: 26500  inst.: 15067774 (ipc=568.6) sim_rate=169300 (inst/sec) elapsed = 0:0:01:29 / Thu Jan 31 00:44:35 2019
GPGPU-Sim PTX: 15500000 instructions simulated : ctaid=(30,4,0) tid=(15,14,0)
GPGPU-Sim PTX: 15600000 instructions simulated : ctaid=(9,4,0) tid=(13,12,0)
GPGPU-Sim uArch: Shader 8 finished CTA #3 (26842,0), 3 CTAs running
GPGPU-Sim uArch: core:  8, cta: 3 initialized @(26843,0)
GPGPU-Sim PTX: 15700000 instructions simulated : ctaid=(27,4,0) tid=(1,2,0)
GPGPU-Sim uArch: Shader 5 finished CTA #3 (26898,0), 3 CTAs running
GPGPU-Sim uArch: core:  5, cta: 3 initialized @(26899,0)
GPGPU-Sim uArch: Shader 4 finished CTA #3 (26913,0), 3 CTAs running
GPGPU-Sim uArch: core:  4, cta: 3 initialized @(26914,0)
GPGPU-Sim uArch: Shader 3 finished CTA #3 (26916,0), 3 CTAs running
GPGPU-Sim uArch: core:  3, cta: 3 initialized @(26917,0)
GPGPU-Sim uArch: Shader 6 finished CTA #3 (26917,0), 3 CTAs running
GPGPU-Sim uArch: core:  6, cta: 3 initialized @(26918,0)
GPGPU-Sim uArch: Shader 13 finished CTA #3 (26933,0), 3 CTAs running
GPGPU-Sim uArch: core: 13, cta: 3 initialized @(26934,0)
GPGPU-Sim uArch: Shader 2 finished CTA #3 (26954,0), 3 CTAs running
GPGPU-Sim uArch: core:  2, cta: 3 initialized @(26955,0)
GPGPU-Sim uArch: Shader 0 finished CTA #3 (26957,0), 3 CTAs running
GPGPU-Sim uArch: Shader 12 finished CTA #3 (26957,0), 3 CTAs running
GPGPU-Sim uArch: core: 12, cta: 3 initialized @(26958,0)
GPGPU-Sim uArch: core:  0, cta: 3 initialized @(26958,0)
GPGPU-Sim uArch: Shader 10 finished CTA #3 (26964,0), 3 CTAs running
GPGPU-Sim uArch: core: 10, cta: 3 initialized @(26965,0)
GPGPU-Sim uArch: Shader 9 finished CTA #3 (26980,0), 3 CTAs running
GPGPU-Sim uArch: core:  9, cta: 3 initialized @(26981,0)
GPGPU-Sim uArch: Shader 7 finished CTA #3 (26992,0), 3 CTAs running
GPGPU-Sim uArch: core:  7, cta: 3 initialized @(26993,0)
GPGPU-Sim uArch: cycles simulated: 27000  inst.: 15395938 (ipc=570.2) sim_rate=169186 (inst/sec) elapsed = 0:0:01:31 / Thu Jan 31 00:44:37 2019
GPGPU-Sim uArch: Shader 14 finished CTA #3 (27019,0), 3 CTAs running
GPGPU-Sim uArch: core: 14, cta: 3 initialized @(27020,0)
GPGPU-Sim PTX: 15800000 instructions simulated : ctaid=(30,4,0) tid=(7,8,0)
GPGPU-Sim uArch: Shader 11 finished CTA #3 (27100,0), 3 CTAs running
GPGPU-Sim uArch: core: 11, cta: 3 initialized @(27101,0)
GPGPU-Sim PTX: 15900000 instructions simulated : ctaid=(5,5,0) tid=(5,11,0)
GPGPU-Sim PTX: 16000000 instructions simulated : ctaid=(13,5,0) tid=(7,6,0)
GPGPU-Sim PTX: 16100000 instructions simulated : ctaid=(20,5,0) tid=(1,8,0)
GPGPU-Sim uArch: cycles simulated: 27500  inst.: 15748004 (ipc=572.7) sim_rate=169333 (inst/sec) elapsed = 0:0:01:33 / Thu Jan 31 00:44:39 2019
GPGPU-Sim PTX: 16200000 instructions simulated : ctaid=(19,4,0) tid=(5,4,0)
GPGPU-Sim PTX: 16300000 instructions simulated : ctaid=(27,4,0) tid=(12,13,0)
GPGPU-Sim PTX: 16400000 instructions simulated : ctaid=(11,5,0) tid=(9,14,0)
GPGPU-Sim uArch: cycles simulated: 28000  inst.: 16059388 (ipc=573.5) sim_rate=169046 (inst/sec) elapsed = 0:0:01:35 / Thu Jan 31 00:44:41 2019
GPGPU-Sim PTX: 16500000 instructions simulated : ctaid=(39,4,0) tid=(9,6,0)
GPGPU-Sim uArch: Shader 4 finished CTA #1 (28095,0), 3 CTAs running
GPGPU-Sim uArch: core:  4, cta: 1 initialized @(28096,0)
GPGPU-Sim uArch: Shader 8 finished CTA #0 (28213,0), 3 CTAs running
GPGPU-Sim uArch: core:  8, cta: 0 initialized @(28214,0)
GPGPU-Sim PTX: 16600000 instructions simulated : ctaid=(26,4,0) tid=(12,15,0)
GPGPU-Sim uArch: Shader 5 finished CTA #0 (28335,0), 3 CTAs running
GPGPU-Sim uArch: core:  5, cta: 0 initialized @(28336,0)
GPGPU-Sim PTX: 16700000 instructions simulated : ctaid=(24,4,0) tid=(13,15,0)
GPGPU-Sim uArch: Shader 1 finished CTA #0 (28377,0), 3 CTAs running
GPGPU-Sim uArch: core:  1, cta: 0 initialized @(28378,0)
GPGPU-Sim uArch: Shader 13 finished CTA #0 (28476,0), 3 CTAs running
GPGPU-Sim uArch: core: 13, cta: 0 initialized @(28477,0)
GPGPU-Sim uArch: Shader 2 finished CTA #1 (28490,0), 3 CTAs running
GPGPU-Sim uArch: core:  2, cta: 1 initialized @(28491,0)
GPGPU-Sim PTX: 16800000 instructions simulated : ctaid=(5,5,0) tid=(5,10,0)
GPGPU-Sim uArch: cycles simulated: 28500  inst.: 16404320 (ipc=575.6) sim_rate=169116 (inst/sec) elapsed = 0:0:01:37 / Thu Jan 31 00:44:43 2019
GPGPU-Sim uArch: Shader 12 finished CTA #0 (28518,0), 3 CTAs running
GPGPU-Sim uArch: core: 12, cta: 0 initialized @(28519,0)
GPGPU-Sim uArch: Shader 11 finished CTA #0 (28524,0), 3 CTAs running
GPGPU-Sim uArch: core: 11, cta: 0 initialized @(28525,0)
GPGPU-Sim uArch: Shader 14 finished CTA #0 (28543,0), 3 CTAs running
GPGPU-Sim uArch: core: 14, cta: 0 initialized @(28544,0)
GPGPU-Sim uArch: Shader 9 finished CTA #0 (28545,0), 3 CTAs running
GPGPU-Sim uArch: core:  9, cta: 0 initialized @(28546,0)
GPGPU-Sim uArch: Shader 3 finished CTA #1 (28553,0), 3 CTAs running
GPGPU-Sim uArch: core:  3, cta: 1 initialized @(28554,0)
GPGPU-Sim uArch: Shader 10 finished CTA #0 (28557,0), 3 CTAs running
GPGPU-Sim uArch: core: 10, cta: 0 initialized @(28558,0)
GPGPU-Sim PTX: 16900000 instructions simulated : ctaid=(31,4,0) tid=(12,6,0)
GPGPU-Sim uArch: Shader 0 finished CTA #0 (28656,0), 3 CTAs running
GPGPU-Sim uArch: core:  0, cta: 0 initialized @(28657,0)
GPGPU-Sim uArch: Shader 6 finished CTA #1 (28696,0), 3 CTAs running
GPGPU-Sim uArch: core:  6, cta: 1 initialized @(28697,0)
GPGPU-Sim PTX: 17000000 instructions simulated : ctaid=(25,4,0) tid=(5,2,0)
GPGPU-Sim uArch: Shader 7 finished CTA #0 (28798,0), 3 CTAs running
GPGPU-Sim uArch: core:  7, cta: 0 initialized @(28799,0)
GPGPU-Sim PTX: 17100000 instructions simulated : ctaid=(25,4,0) tid=(11,13,0)
GPGPU-Sim uArch: cycles simulated: 29000  inst.: 16770314 (ipc=578.3) sim_rate=169397 (inst/sec) elapsed = 0:0:01:39 / Thu Jan 31 00:44:45 2019
GPGPU-Sim PTX: 17200000 instructions simulated : ctaid=(5,5,0) tid=(10,7,0)
GPGPU-Sim PTX: 17300000 instructions simulated : ctaid=(37,5,0) tid=(5,9,0)
GPGPU-Sim PTX: 17400000 instructions simulated : ctaid=(35,5,0) tid=(7,6,0)
GPGPU-Sim PTX: 17500000 instructions simulated : ctaid=(26,4,0) tid=(11,10,0)
GPGPU-Sim uArch: cycles simulated: 29500  inst.: 17088410 (ipc=579.3) sim_rate=169192 (inst/sec) elapsed = 0:0:01:41 / Thu Jan 31 00:44:47 2019
GPGPU-Sim PTX: 17600000 instructions simulated : ctaid=(9,5,0) tid=(14,6,0)
GPGPU-Sim PTX: 17700000 instructions simulated : ctaid=(31,5,0) tid=(15,6,0)
GPGPU-Sim uArch: Shader 4 finished CTA #0 (29907,0), 3 CTAs running
GPGPU-Sim uArch: core:  4, cta: 0 initialized @(29908,0)
GPGPU-Sim uArch: Shader 8 finished CTA #1 (29926,0), 3 CTAs running
GPGPU-Sim uArch: core:  8, cta: 1 initialized @(29927,0)
GPGPU-Sim PTX: 17800000 instructions simulated : ctaid=(41,4,0) tid=(4,0,0)
GPGPU-Sim uArch: cycles simulated: 30000  inst.: 17396167 (ipc=579.9) sim_rate=170550 (inst/sec) elapsed = 0:0:01:42 / Thu Jan 31 00:44:48 2019
GPGPU-Sim uArch: Shader 5 finished CTA #1 (30035,0), 3 CTAs running
GPGPU-Sim uArch: core:  5, cta: 1 initialized @(30036,0)
GPGPU-Sim PTX: 17900000 instructions simulated : ctaid=(19,5,0) tid=(9,7,0)
GPGPU-Sim uArch: Shader 1 finished CTA #1 (30228,0), 3 CTAs running
GPGPU-Sim uArch: core:  1, cta: 1 initialized @(30229,0)
GPGPU-Sim uArch: Shader 0 finished CTA #1 (30241,0), 3 CTAs running
GPGPU-Sim uArch: core:  0, cta: 1 initialized @(30242,0)
GPGPU-Sim PTX: 18000000 instructions simulated : ctaid=(22,5,0) tid=(9,4,0)
GPGPU-Sim uArch: Shader 6 finished CTA #0 (30282,0), 3 CTAs running
GPGPU-Sim uArch: core:  6, cta: 0 initialized @(30283,0)
GPGPU-Sim uArch: Shader 9 finished CTA #1 (30365,0), 3 CTAs running
GPGPU-Sim uArch: core:  9, cta: 1 initialized @(30366,0)
GPGPU-Sim PTX: 18100000 instructions simulated : ctaid=(39,4,0) tid=(5,3,0)
GPGPU-Sim uArch: Shader 3 finished CTA #0 (30406,0), 3 CTAs running
GPGPU-Sim uArch: core:  3, cta: 0 initialized @(30407,0)
GPGPU-Sim uArch: Shader 14 finished CTA #1 (30430,0), 3 CTAs running
GPGPU-Sim uArch: core: 14, cta: 1 initialized @(30431,0)
GPGPU-Sim uArch: Shader 12 finished CTA #1 (30436,0), 3 CTAs running
GPGPU-Sim uArch: core: 12, cta: 1 initialized @(30437,0)
GPGPU-Sim uArch: Shader 11 finished CTA #1 (30465,0), 3 CTAs running
GPGPU-Sim uArch: core: 11, cta: 1 initialized @(30466,0)
GPGPU-Sim uArch: cycles simulated: 30500  inst.: 17746430 (ipc=581.9) sim_rate=170638 (inst/sec) elapsed = 0:0:01:44 / Thu Jan 31 00:44:50 2019
GPGPU-Sim PTX: 18200000 instructions simulated : ctaid=(5,5,0) tid=(1,13,0)
GPGPU-Sim uArch: Shader 2 finished CTA #0 (30529,0), 3 CTAs running
GPGPU-Sim uArch: Shader 13 finished CTA #1 (30529,0), 3 CTAs running
GPGPU-Sim uArch: core: 13, cta: 1 initialized @(30530,0)
GPGPU-Sim uArch: core:  2, cta: 0 initialized @(30530,0)
GPGPU-Sim uArch: Shader 10 finished CTA #1 (30537,0), 3 CTAs running
GPGPU-Sim uArch: core: 10, cta: 1 initialized @(30538,0)
GPGPU-Sim uArch: Shader 7 finished CTA #1 (30590,0), 3 CTAs running
GPGPU-Sim uArch: core:  7, cta: 1 initialized @(30591,0)
GPGPU-Sim PTX: 18300000 instructions simulated : ctaid=(10,5,0) tid=(10,5,0)
GPGPU-Sim PTX: 18400000 instructions simulated : ctaid=(23,5,0) tid=(13,11,0)
GPGPU-Sim PTX: 18500000 instructions simulated : ctaid=(10,5,0) tid=(12,5,0)
GPGPU-Sim uArch: cycles simulated: 31000  inst.: 18090826 (ipc=583.6) sim_rate=170668 (inst/sec) elapsed = 0:0:01:46 / Thu Jan 31 00:44:52 2019
GPGPU-Sim PTX: 18600000 instructions simulated : ctaid=(24,5,0) tid=(8,12,0)
GPGPU-Sim PTX: 18700000 instructions simulated : ctaid=(40,4,0) tid=(13,13,0)
GPGPU-Sim PTX: 18800000 instructions simulated : ctaid=(16,5,0) tid=(12,14,0)
GPGPU-Sim uArch: cycles simulated: 31500  inst.: 18401134 (ipc=584.2) sim_rate=170380 (inst/sec) elapsed = 0:0:01:48 / Thu Jan 31 00:44:54 2019
GPGPU-Sim PTX: 18900000 instructions simulated : ctaid=(28,5,0) tid=(1,9,0)
GPGPU-Sim uArch: Shader 1 finished CTA #2 (31651,0), 3 CTAs running
GPGPU-Sim uArch: core:  1, cta: 2 initialized @(31652,0)
GPGPU-Sim uArch: Shader 10 finished CTA #2 (31653,0), 3 CTAs running
GPGPU-Sim uArch: core: 10, cta: 2 initialized @(31654,0)
GPGPU-Sim uArch: Shader 12 finished CTA #2 (31698,0), 3 CTAs running
GPGPU-Sim uArch: core: 12, cta: 2 initialized @(31699,0)
GPGPU-Sim uArch: Shader 2 finished CTA #2 (31712,0), 3 CTAs running
GPGPU-Sim uArch: core:  2, cta: 2 initialized @(31713,0)
GPGPU-Sim uArch: Shader 8 finished CTA #2 (31719,0), 3 CTAs running
GPGPU-Sim uArch: core:  8, cta: 2 initialized @(31720,0)
GPGPU-Sim PTX: 19000000 instructions simulated : ctaid=(35,5,0) tid=(1,0,0)
GPGPU-Sim uArch: Shader 5 finished CTA #2 (31772,0), 3 CTAs running
GPGPU-Sim uArch: core:  5, cta: 2 initialized @(31773,0)
GPGPU-Sim uArch: Shader 13 finished CTA #2 (31787,0), 3 CTAs running
GPGPU-Sim uArch: core: 13, cta: 2 initialized @(31788,0)
GPGPU-Sim uArch: Shader 4 finished CTA #2 (31812,0), 3 CTAs running
GPGPU-Sim uArch: core:  4, cta: 2 initialized @(31813,0)
GPGPU-Sim PTX: 19100000 instructions simulated : ctaid=(33,5,0) tid=(10,0,0)
GPGPU-Sim uArch: Shader 0 finished CTA #2 (31877,0), 3 CTAs running
GPGPU-Sim uArch: core:  0, cta: 2 initialized @(31878,0)
GPGPU-Sim uArch: Shader 3 finished CTA #2 (31949,0), 3 CTAs running
GPGPU-Sim uArch: core:  3, cta: 2 initialized @(31950,0)
GPGPU-Sim PTX: 19200000 instructions simulated : ctaid=(16,5,0) tid=(7,2,0)
GPGPU-Sim uArch: Shader 14 finished CTA #2 (31992,0), 3 CTAs running
GPGPU-Sim uArch: core: 14, cta: 2 initialized @(31993,0)
GPGPU-Sim uArch: cycles simulated: 32000  inst.: 18750178 (ipc=585.9) sim_rate=170456 (inst/sec) elapsed = 0:0:01:50 / Thu Jan 31 00:44:56 2019
GPGPU-Sim PTX: 19300000 instructions simulated : ctaid=(6,5,0) tid=(7,13,0)
GPGPU-Sim uArch: Shader 6 finished CTA #2 (32122,0), 3 CTAs running
GPGPU-Sim uArch: core:  6, cta: 2 initialized @(32123,0)
GPGPU-Sim PTX: 19400000 instructions simulated : ctaid=(21,5,0) tid=(15,11,0)
GPGPU-Sim uArch: Shader 11 finished CTA #2 (32274,0), 3 CTAs running
GPGPU-Sim uArch: core: 11, cta: 2 initialized @(32275,0)
GPGPU-Sim uArch: Shader 9 finished CTA #2 (32326,0), 3 CTAs running
GPGPU-Sim uArch: core:  9, cta: 2 initialized @(32327,0)
GPGPU-Sim uArch: Shader 7 finished CTA #2 (32356,0), 3 CTAs running
GPGPU-Sim uArch: core:  7, cta: 2 initialized @(32357,0)
GPGPU-Sim PTX: 19500000 instructions simulated : ctaid=(32,5,0) tid=(14,6,0)
GPGPU-Sim uArch: cycles simulated: 32500  inst.: 19115956 (ipc=588.2) sim_rate=170678 (inst/sec) elapsed = 0:0:01:52 / Thu Jan 31 00:44:58 2019
GPGPU-Sim PTX: 19600000 instructions simulated : ctaid=(24,5,0) tid=(3,0,0)
GPGPU-Sim PTX: 19700000 instructions simulated : ctaid=(23,6,0) tid=(7,12,0)
GPGPU-Sim PTX: 19800000 instructions simulated : ctaid=(20,6,0) tid=(15,8,0)
GPGPU-Sim PTX: 19900000 instructions simulated : ctaid=(11,6,0) tid=(9,10,0)
GPGPU-Sim uArch: cycles simulated: 33000  inst.: 19431804 (ipc=588.8) sim_rate=171962 (inst/sec) elapsed = 0:0:01:53 / Thu Jan 31 00:44:59 2019
GPGPU-Sim PTX: 20000000 instructions simulated : ctaid=(10,5,0) tid=(5,13,0)
GPGPU-Sim uArch: Shader 8 finished CTA #3 (33312,0), 3 CTAs running
GPGPU-Sim uArch: core:  8, cta: 3 initialized @(33313,0)
[...]
gpgpu_stall_shd_mem[l_mem_ld][icnt_rc] = 0
gpgpu_stall_shd_mem[l_mem_ld][wb_icnt_rc] = 0
gpgpu_stall_shd_mem[l_mem_ld][wb_rsrv_fail] = 0
gpgpu_stall_shd_mem[l_mem_st][mshr_rc] = 0
gpgpu_stall_shd_mem[l_mem_st][icnt_rc] = 0
gpgpu_stall_shd_mem[l_mem_ld][wb_icnt_rc] = 0
gpgpu_stall_shd_mem[l_mem_ld][wb_rsrv_fail] = 0
gpu_reg_bank_conflict_stalls = 0
Warp Occupancy Distribution:
Stall:771681	W0_Idle:56693	W0_Scoreboard:535214	W1:0	W2:256	W3:0	W4:14792	W5:0	W6:0	W7:0	W8:15048	W9:3864	W10:256	W11:0	W12:0	W13:3864	W14:161868	W15:84	W16:16640	W17:0	W18:11776	W19:84	W20:7140	W21:0	W22:0	W23:0	W24:1338720	W25:0	W26:11776	W27:0	W28:1126184	W29:0	W30:0	W31:0	W32:2449792
traffic_breakdown_coretomem[CONST_ACC_R] = 120 {8:15,}
traffic_breakdown_coretomem[GLOBAL_ACC_R] = 685440 {8:85680,}
traffic_breakdown_coretomem[GLOBAL_ACC_W] = 1970176 {40:10752,72:10752,136:5632,}
traffic_breakdown_coretomem[INST_ACC_R] = 39792 {8:4974,}
traffic_breakdown_memtocore[CONST_ACC_R] = 1080 {72:15,}
traffic_breakdown_memtocore[GLOBAL_ACC_R] = 7126400 {40:27200,72:29920,136:28560,}
traffic_breakdown_memtocore[GLOBAL_ACC_W] = 217088 {8:27136,}
traffic_breakdown_memtocore[INST_ACC_R] = 676464 {136:4974,}
maxmrqlatency = 248 
maxdqlatency = 0 
maxmflatency = 841 
averagemflatency = 212 
max_icnt2mem_latency = 613 
max_icnt2sh_latency = 218350 
mrq_lat_table:19303 	915 	2118 	2384 	6385 	7511 	5039 	2046 	0 	0 	0 	0 	0 	0 	0 	0 	0 	0 	0 	0 	0 	0 	0 	0 	0 	0 	0 	0 	0 	0 	0 	0 	
dq_lat_table:0 	0 	0 	0 	0 	0 	0 	0 	0 	0 	0 	0 	0 	0 	0 	0 	0 	0 	0 	0 	0 	0 	0 	0 	0 	0 	0 	0 	0 	0 	0 	0 	
mf_lat_table:0 	0 	0 	0 	0 	0 	0 	74577 	36066 	2188 	0 	0 	0 	0 	0 	0 	0 	0 	0 	0 	0 	0 	0 	0 	0 	0 	0 	0 	0 	0 	0 	0 	
icnt2mem_lat_table:0 	0 	0 	86807 	24916 	3830 	744 	870 	627 	11 	0 	0 	0 	0 	0 	0 	0 	0 	0 	0 	0 	0 	0 	0 	
icnt2sh_lat_table:0 	0 	0 	52210 	30492 	2935 	58 	0 	0 	0 	0 	0 	0 	1164 	2160 	4224 	8414 	11174 	0 	0 	0 	0 	0 	0 	
mf_lat_pw_table:0 	0 	0 	0 	0 	0 	0 	408 	9 	5 	0 	0 	0 	0 	0 	0 	0 	0 	0 	0 	0 	0 	0 	0 	0 	0 	0 	0 	0 	0 	0 	0 	
maximum concurrent accesses to same row:
dram[0]:       125       124       108       109       111       109        98        97        94       103       105        97        95       113       114        90 
dram[1]:       124       107       101       102        96       110        92        97       102        86       114       103        96        99        92       103 
dram[2]:       123       122       110       111       109       110        97        94       101        94        98       105       112        97        92       111 
dram[3]:       106       124       103       102       110        96        99        90        90       103       103       114       101        95       105        92 
dram[4]:       124       126       111       110       108       111        97       100        95       100        98        97        96       113       114        91 
dram[5]:       123       109       101       105        96       110        89       101       109        90       116       101        97        98        92       103 
maximum service time to same row:
dram[0]:     24724     23994     24122     24486     25176     25979     34788     34665     34450     35558     35213     34524     34759     36038     35157     34776 
dram[1]:     25359     24245     24157     25420     24543     26058     34732     36343     34878     36888     36053     34891     34584     35036     35053     36224 
dram[2]:     24789     24800     24484     24681     26004     25890     34679     34773     35552     34350     34520     34343     36029     34204     34773     34701 
dram[3]:     24245     25731     25422     24630     26100     24541     36345     34682     36891     34818     34887     35512     35028     34349     36223     34474 
dram[4]:     24724     25325     24126     24913     25157     26020     34789     34637     34490     35311     35215     33991     34763     35774     35161     34147 
dram[5]:     25357     25221     24155     25775     24519     26326     34716     36303     34983     36687     36055     34514     34586     34362     35055     35212 
average row accesses per activate:
dram[0]: 10.714286  7.197183  6.671052  6.387500  5.976744  5.835165  5.433333  5.779070  5.333333  6.567567  7.238095  4.988764  5.046512  5.289156  6.041096  4.186275 
dram[1]:  7.597015  6.452055  5.892857  6.179487  5.115789  6.518987  5.590909  5.674418  4.950000  4.946808  6.647887  6.013333  5.743243  4.663043  4.619565  5.104651 
dram[2]:  7.671642 12.046512  5.988372  7.727273  5.855556  5.688889  5.488889  5.148936  6.179487  5.355556  4.649485  6.040000  5.141177  4.977273  4.397959  5.518518 
dram[3]:  6.479452  9.407408  6.192307  5.779070  6.204819  5.329670  4.970000  5.212766  5.719512  5.732558  6.436620  6.410959  4.695652  5.448718  5.000000  5.059524 
dram[4]: 11.600000  7.968750  7.757576  6.047619  5.906977  5.688172  5.522727  5.892857  5.853659  5.890244  5.973333  5.011236  5.304878  5.214286  6.197183  4.290000 
dram[5]:  8.360656  6.351351  5.952381  5.761905  5.438202  6.714286  5.556818  5.466667  5.647727  5.441861  7.000000  5.567901  6.085714  4.574468  4.700000  4.932584 
average row locality = 45701/7841 = 5.828466
number of total memory accesses made:
dram[0]:         0         0         0         0         0         0         0         0         0         0         0         0         0         0         0         0 
dram[1]:         0         0         0         0         0         0         0         0         0         0         0         0         0         0         0         0 
dram[2]:         0         0         0         0         0         0         0         0         0         0         0         0         0         0         0         0 
dram[3]:         0         0         0         0         0         0         0         0         0         0         0         0         0         0         0         0 
dram[4]:         0         0         0         0         0         0         0         0         0         0         0         0         0         0         0         0 
dram[5]:         0         0         0         0         0         0         0         0         0         0         0         0         0         0         0         0 
total accesses: 0
min_bank_accesses = 0!
min_chip_accesses = 0!
number of total read accesses:
dram[0]:       259       258       256       256       256       256       256       256       256       256       256       256       256       256       256       256 
dram[1]:       258       258       256       256       256       256       256       256       256       256       256       256       256       256       256       256 
dram[2]:       258       257       256       256       256       256       256       256       256       256       256       256       256       256       256       256 
dram[3]:       258       256       256       256       256       256       256       256       256       256       256       256       256       256       256       256 
dram[4]:       258       256       256       256       256       256       256       256       256       256       256       256       256       256       256       256 
dram[5]:       258       256       256       256       256       256       256       256       256       256       256       256       256       256       256       256 
total reads: 24594
bank skew: 259/256 = 1.01
chip skew: 4101/4098 = 1.00
number of total write accesses:
dram[0]:       266       253       251       255       258       275       233       241       224       230       200       188       178       183       185       171 
dram[1]:       251       213       239       226       230       259       236       232       239       209       216       195       169       173       169       183 
dram[2]:       256       261       259       254       271       256       238       228       226       226       195       197       181       182       175       191 
dram[3]:       215       252       227       241       259       229       241       234       213       237       201       212       176       169       184       169 
dram[4]:       264       254       256       252       252       273       230       239       224       227       192       190       179       182       184       173 
dram[5]:       252       214       244       228       228       261       233       236       241       212       213       195       170       174       167       183 
total reads: 21107
bank skew: 275/167 = 1.65
chip skew: 3596/3439 = 1.05
average mf latency per bank:
dram[0]:        485       515       447       472       457       482       502       565       467       499       570       649       557       606       526       569
dram[1]:        495       520       471       496       485       490       540       543       475       504       587       593       633       591       541       563
dram[2]:        506       478       462       441       471       458       548       523       485       477       600       579       606       566       552       526
dram[3]:        507       496       487       469       479       481       504       548       489       487       564       598       575       632       548       549
dram[4]:        490       509       456       465       464       477       527       556       491       494       585       619       593       596       541       553
dram[5]:        507       509       481       478       497       482       556       523       491       492       605       587       646       571       565       547
maximum mf latency per bank:
dram[0]:        792       771       422       486       620       699       691       755       490       495       757       841       776       802       510       416
dram[1]:        799       670       441       498       700       539       792       657       552       523       834       640       696       608       470       470
dram[2]:        776       780       443       433       635       713       705       721       538       529       801       838       790       754       407       514
dram[3]:        669       764       526       427       510       557       523       839       474       577       824       840       676       706       497       445
dram[4]:        774       801       447       463       608       708       649       729       621       515       722       767       687       727       497       410
dram[5]:        783       664       431       508       511       567       693       638       598       447       751       815       697       752       435       471
Memory Partition 0: 
Cache L2_bank_000:
MSHR contents

Cache L2_bank_001:
MSHR contents

In Dram Latency Queue (total = 0): 
DRAM[0]: 16 bks, busW=4 BL=8 CL=12, tRRD=2 tCCD=6, tRCD=12 tRAS=28 tRP=12 tRC=40
n_cmd=218351 n_nop=202675 n_act=1289 n_pre=1273 n_req=7692 n_rd=8202 n_write=4912 bw_util=0.1201
n_activity=103876 dram_eff=0.2525
bk0: 518a 212171i bk1: 516a 211747i bk2: 512a 211880i bk3: 512a 211809i bk4: 512a 211352i bk5: 512a 211403i bk6: 512a 211244i bk7: 512a 211329i bk8: 512a 211537i bk9: 512a 212020i bk10: 512a 212850i bk11: 512a 212084i bk12: 512a 212463i bk13: 512a 212378i bk14: 512a 212793i bk15: 512a 211874i 
dram_util_bins: 0 0 0 0 0 0 0 0 0 0
dram_eff_bins: 0 0 0 0 0 0 0 0 0 0
mrqq: max=16 avg=1.01324
Memory Partition 1: 
Cache L2_bank_002:
MSHR contents

Cache L2_bank_003:
MSHR contents

In Dram Latency Queue (total = 0): 
DRAM[1]: 16 bks, busW=4 BL=8 CL=12, tRRD=2 tCCD=6, tRCD=12 tRAS=28 tRP=12 tRC=40
n_cmd=218351 n_nop=202667 n_act=1334 n_pre=1318 n_req=7539 n_rd=8200 n_write=4832 bw_util=0.1194
n_activity=104129 dram_eff=0.2503
bk0: 516a 211758i bk1: 516a 211743i bk2: 512a 211618i bk3: 512a 211763i bk4: 512a 211241i bk5: 512a 211568i bk6: 512a 211420i bk7: 512a 211290i bk8: 512a 211318i bk9: 512a 211334i bk10: 512a 212234i bk11: 512a 212420i bk12: 512a 212701i bk13: 512a 211985i bk14: 512a 212438i bk15: 512a 212423i 
dram_util_bins: 0 0 0 0 0 0 0 0 0 0
dram_eff_bins: 0 0 0 0 0 0 0 0 0 0
mrqq: max=16 avg=0.953813
Memory Partition 2: 
Cache L2_bank_004:
MSHR contents

Cache L2_bank_005:
MSHR contents

In Dram Latency Queue (total = 0): 
DRAM[2]: 16 bks, busW=4 BL=8 CL=12, tRRD=2 tCCD=6, tRCD=12 tRAS=28 tRP=12 tRC=40
n_cmd=218351 n_nop=202608 n_act=1318 n_pre=1302 n_req=7695 n_rd=8198 n_write=4925 bw_util=0.1202
n_activity=104668 dram_eff=0.2508
bk0: 516a 211741i bk1: 514a 212424i bk2: 512a 211545i bk3: 512a 212219i bk4: 512a 211536i bk5: 512a 211268i bk6: 512a 211434i bk7: 512a 211180i bk8: 512a 211950i bk9: 512a 211520i bk10: 512a 211842i bk11: 512a 212393i bk12: 512a 212277i bk13: 512a 212163i bk14: 512a 211845i bk15: 512a 212359i 
dram_util_bins: 0 0 0 0 0 0 0 0 0 0
dram_eff_bins: 0 0 0 0 0 0 0 0 0 0
mrqq: max=16 avg=1.00301
Memory Partition 3: 
Cache L2_bank_006:
MSHR contents

Cache L2_bank_007:
MSHR contents

In Dram Latency Queue (total = 0): 
DRAM[3]: 16 bks, busW=4 BL=8 CL=12, tRRD=2 tCCD=6, tRCD=12 tRAS=28 tRP=12 tRC=40
n_cmd=218351 n_nop=202691 n_act=1313 n_pre=1297 n_req=7557 n_rd=8196 n_write=4854 bw_util=0.1195
n_activity=104167 dram_eff=0.2506
bk0: 516a 211685i bk1: 512a 212124i bk2: 512a 211832i bk3: 512a 211392i bk4: 512a 211561i bk5: 512a 211553i bk6: 512a 211082i bk7: 512a 211100i bk8: 512a 211762i bk9: 512a 211630i bk10: 512a 212351i bk11: 512a 212507i bk12: 512a 212371i bk13: 512a 212576i bk14: 512a 212293i bk15: 512a 212639i 
dram_util_bins: 0 0 0 0 0 0 0 0 0 0
dram_eff_bins: 0 0 0 0 0 0 0 0 0 0
mrqq: max=16 avg=0.980875
Memory Partition 4: 
Cache L2_bank_008:
MSHR contents

Cache L2_bank_009:
MSHR contents

In Dram Latency Queue (total = 0): 
DRAM[4]: 16 bks, busW=4 BL=8 CL=12, tRRD=2 tCCD=6, tRCD=12 tRAS=28 tRP=12 tRC=40
n_cmd=218351 n_nop=202729 n_act=1275 n_pre=1259 n_req=7669 n_rd=8196 n_write=4892 bw_util=0.1199
n_activity=103661 dram_eff=0.2525
bk0: 516a 212319i bk1: 512a 211990i bk2: 512a 211945i bk3: 512a 211624i bk4: 512a 211517i bk5: 512a 211288i bk6: 512a 211181i bk7: 512a 211613i bk8: 512a 211834i bk9: 512a 211879i bk10: 512a 212579i bk11: 512a 212026i bk12: 512a 212228i bk13: 512a 212394i bk14: 512a 212819i bk15: 512a 211984i 
dram_util_bins: 0 0 0 0 0 0 0 0 0 0
dram_eff_bins: 0 0 0 0 0 0 0 0 0 0
mrqq: max=16 avg=0.991995
Memory Partition 5: 
Cache L2_bank_010:
MSHR contents

Cache L2_bank_011:
MSHR contents

In Dram Latency Queue (total = 0): 
DRAM[5]: 16 bks, busW=4 BL=8 CL=12, tRRD=2 tCCD=6, tRCD=12 tRAS=28 tRP=12 tRC=40
n_cmd=218351 n_nop=202699 n_act=1312 n_pre=1296 n_req=7549 n_rd=8196 n_write=4848 bw_util=0.1195
n_activity=103015 dram_eff=0.2532
bk0: 516a 212107i bk1: 512a 211690i bk2: 512a 211599i bk3: 512a 211700i bk4: 512a 211505i bk5: 512a 211652i bk6: 512a 211210i bk7: 512a 211233i bk8: 512a 211331i bk9: 512a 211864i bk10: 512a 212687i bk11: 512a 212310i bk12: 512a 212683i bk13: 512a 211999i bk14: 512a 212465i bk15: 512a 212040i 
dram_util_bins: 0 0 0 0 0 0 0 0 0 0
dram_eff_bins: 0 0 0 0 0 0 0 0 0 0
mrqq: max=16 avg=0.949288

========= L2 cache stats =========
L2_cache_bank[0]: Access = 10367, Miss = 2051, Miss_rate = 0.198, Pending_hits = 1782, Reservation_fails = 503
L2_cache_bank[1]: Access = 10606, Miss = 2050, Miss_rate = 0.193, Pending_hits = 1791, Reservation_fails = 319
L2_cache_bank[2]: Access = 9389, Miss = 2050, Miss_rate = 0.218, Pending_hits = 1809, Reservation_fails = 197
L2_cache_bank[3]: Access = 9726, Miss = 2050, Miss_rate = 0.211, Pending_hits = 1750, Reservation_fails = 198
L2_cache_bank[4]: Access = 9619, Miss = 2050, Miss_rate = 0.213, Pending_hits = 1789, Reservation_fails = 300
L2_cache_bank[5]: Access = 10695, Miss = 2049, Miss_rate = 0.192, Pending_hits = 1807, Reservation_fails = 252
L2_cache_bank[6]: Access = 9389, Miss = 2050, Miss_rate = 0.218, Pending_hits = 1771, Reservation_fails = 204
L2_cache_bank[7]: Access = 9360, Miss = 2048, Miss_rate = 0.219, Pending_hits = 1769, Reservation_fails = 122
L2_cache_bank[8]: Access = 10035, Miss = 2050, Miss_rate = 0.204, Pending_hits = 1765, Reservation_fails = 292
L2_cache_bank[9]: Access = 9531, Miss = 2048, Miss_rate = 0.215, Pending_hits = 1795, Reservation_fails = 130
L2_cache_bank[10]: Access = 9727, Miss = 2050, Miss_rate = 0.211, Pending_hits = 1822, Reservation_fails = 187
L2_cache_bank[11]: Access = 9361, Miss = 2048, Miss_rate = 0.219, Pending_hits = 1761, Reservation_fails = 0
L2_total_cache_accesses = 117805
L2_total_cache_misses = 24594
L2_total_cache_miss_rate = 0.2088
L2_total_cache_pending_hits = 21411
L2_total_cache_reservation_fails = 2704
L2_total_cache_breakdown:
	L2_cache_stats_breakdown[GLOBAL_ACC_R][HIT] = 56221
	L2_cache_stats_breakdown[GLOBAL_ACC_R][HIT_RESERVED] = 13075
	L2_cache_stats_breakdown[GLOBAL_ACC_R][MISS] = 16384
	L2_cache_stats_breakdown[GLOBAL_ACC_R][RESERVATION_FAIL] = 842
	L2_cache_stats_breakdown[CONST_ACC_R][HIT] = 11
	L2_cache_stats_breakdown[CONST_ACC_R][HIT_RESERVED] = 3
	L2_cache_stats_breakdown[CONST_ACC_R][MISS] = 1
	L2_cache_stats_breakdown[CONST_ACC_R][RESERVATION_FAIL] = 119
	L2_cache_stats_breakdown[GLOBAL_ACC_W][HIT] = 10662
	L2_cache_stats_breakdown[GLOBAL_ACC_W][HIT_RESERVED] = 8282
	L2_cache_stats_breakdown[GLOBAL_ACC_W][MISS] = 8192
	L2_cache_stats_breakdown[INST_ACC_R][HIT] = 4906
	L2_cache_stats_breakdown[INST_ACC_R][HIT_RESERVED] = 51
	L2_cache_stats_breakdown[INST_ACC_R][MISS] = 17
	L2_cache_stats_breakdown[INST_ACC_R][RESERVATION_FAIL] = 1743
L2_cache_data_port_util = 0.072
L2_cache_fill_port_util = 0.038

icnt_total_pkts_mem_to_simt=339011
icnt_total_pkts_simt_to_mem=172589
LD_mem_lat_dist  0 0 0 0 0 0 0 0 0 0 0 0 0 0 0 0 0 0 0 0 0 0 0 0 0 0 0
ST_mem_lat_dist  0 0 0 0 0 0 0 0 0 0 0 0 0 0 0 0 0 0 0 0 0 0 0 0 0 0 0
----------------------------Interconnect-DETAILS--------------------------------
Class 0:
Packet latency average = 13.1402
	minimum = 6
	maximum = 580
Network latency average = 11.0357
	minimum = 6
	maximum = 495
Slowest packet = 3716
Flit latency average = 9.72284
	minimum = 6
	maximum = 495
Slowest flit = 7039
Fragmentation average = 0
	minimum = 0
	maximum = 0
Injected packet rate average = 0.0399645
	minimum = 0.0343392 (at node 1)
	maximum = 0.0489808 (at node 20)
Accepted packet rate average = 0.0399645
	minimum = 0.0343392 (at node 1)
	maximum = 0.0489808 (at node 20)
Injected flit rate average = 0.0867784
	minimum = 0.0513989 (at node 2)
	maximum = 0.15482 (at node 20)
Accepted flit rate average= 0.0867784
	minimum = 0.0639521 (at node 22)
	maximum = 0.104213 (at node 8)
Injected packet length average = 2.17138
Accepted packet length average = 2.17138
Total in-flight flits = 0 (0 measured)
====== Overall Traffic Statistics ======
====== Traffic class 0 ======
Packet latency average = 13.1402 (1 samples)
	minimum = 6 (1 samples)
	maximum = 580 (1 samples)
Network latency average = 11.0357 (1 samples)
	minimum = 6 (1 samples)
	maximum = 495 (1 samples)
Flit latency average = 9.72284 (1 samples)
	minimum = 6 (1 samples)
	maximum = 495 (1 samples)
Fragmentation average = 0 (1 samples)
	minimum = 0 (1 samples)
	maximum = 0 (1 samples)
Injected packet rate average = 0.0399645 (1 samples)
	minimum = 0.0343392 (1 samples)
	maximum = 0.0489808 (1 samples)
Accepted packet rate average = 0.0399645 (1 samples)
	minimum = 0.0343392 (1 samples)
	maximum = 0.0489808 (1 samples)
Injected flit rate average = 0.0867784 (1 samples)
	minimum = 0.0513989 (1 samples)
	maximum = 0.15482 (1 samples)
Accepted flit rate average = 0.0867784 (1 samples)
	minimum = 0.0639521 (1 samples)
	maximum = 0.104213 (1 samples)
Injected packet size average = 2.17138 (1 samples)
Accepted packet size average = 2.17138 (1 samples)
Hops average = 1 (1 samples)
----------------------------END-of-Interconnect-DETAILS-------------------------


gpgpu_simulation_time = 0 days, 0 hrs, 12 min, 43 sec (763 sec)
gpgpu_simulation_rate = 186254 (inst/sec)
gpgpu_simulation_rate = 286 (cycle/sec)
Ending simulation
