

        *** GPGPU-Sim Simulator Version 3.2.2  [build 0] ***


GPGPU-Sim PTX: simulation mode 0 (can change with PTX_SIM_MODE_FUNC environment variable:
               1=functional simulation only, 0=detailed performance simulator)
GPGPU-Sim: Configuration options:

-network_mode                           1 # Interconnection network mode
-inter_config_file   config_fermi_islip.icnt # Interconnection network config file
-gpgpu_ptx_use_cuobjdump                    1 # Use cuobjdump to extract ptx and sass from binaries
-gpgpu_experimental_lib_support                    0 # Try to extract code from cuda libraries [Broken because of unknown cudaGetExportTable]
-gpgpu_ptx_convert_to_ptxplus                    0 # Convert SASS (native ISA) to ptxplus and run ptxplus
-gpgpu_ptx_force_max_capability                   20 # Force maximum compute capability
-gpgpu_ptx_inst_debug_to_file                    0 # Dump executed instructions' debug information to file
-gpgpu_ptx_inst_debug_file       inst_debug.txt # Executed instructions' debug output file
-gpgpu_ptx_inst_debug_thread_uid                    1 # Thread UID for executed instructions' debug output
-gpgpu_simd_model                       1 # 1 = post-dominator
-gpgpu_shader_core_pipeline              1536:32 # shader core pipeline config, i.e., {<nthread>:<warpsize>}
-gpgpu_tex_cache:l1  4:128:24,L:R:m:N:L,F:128:4,128:2 # per-shader L1 texture cache  (READ-ONLY) config  {<nsets>:<bsize>:<assoc>,<rep>:<wr>:<alloc>:<wr_alloc>,<mshr>:<N>:<merge>,<mq>:<rf>}
-gpgpu_const_cache:l1 64:64:2,L:R:f:N:L,A:2:32,4 # per-shader L1 constant memory cache  (READ-ONLY) config  {<nsets>:<bsize>:<assoc>,<rep>:<wr>:<alloc>:<wr_alloc>,<mshr>:<N>:<merge>,<mq>} 
-gpgpu_cache:il1     4:128:4,L:R:f:N:L,A:2:32,4 # shader L1 instruction cache config  {<nsets>:<bsize>:<assoc>,<rep>:<wr>:<alloc>:<wr_alloc>,<mshr>:<N>:<merge>,<mq>} 
-gpgpu_cache:dl1     32:128:4,L:L:m:N:H,A:32:8,8 # per-shader L1 data cache config  {<nsets>:<bsize>:<assoc>,<rep>:<wr>:<alloc>:<wr_alloc>,<mshr>:<N>:<merge>,<mq> | none}
-gpgpu_cache:dl1PrefL1                 none # per-shader L1 data cache config  {<nsets>:<bsize>:<assoc>,<rep>:<wr>:<alloc>:<wr_alloc>,<mshr>:<N>:<merge>,<mq> | none}
-gpgpu_cache:dl1PreShared                 none # per-shader L1 data cache config  {<nsets>:<bsize>:<assoc>,<rep>:<wr>:<alloc>:<wr_alloc>,<mshr>:<N>:<merge>,<mq> | none}
-gmem_skip_L1D                          0 # global memory access skip L1D cache (implements -Xptxas -dlcm=cg, default=no skip)
-gpgpu_perfect_mem                      0 # enable perfect memory mode (no cache miss)
-n_regfile_gating_group                    4 # group of lanes that should be read/written together)
-gpgpu_clock_gated_reg_file                    0 # enable clock gated reg file for power calculations
-gpgpu_clock_gated_lanes                    0 # enable clock gated lanes for power calculations
-gpgpu_shader_registers                32768 # Number of registers per shader core. Limits number of concurrent CTAs. (default 8192)
-gpgpu_shader_cta                       8 # Maximum number of concurrent CTAs in shader (default 8)
-gpgpu_num_cta_barriers                   16 # Maximum number of named barriers per CTA (default 16)
-gpgpu_n_clusters                      15 # number of processing clusters
-gpgpu_n_cores_per_cluster                    1 # number of simd cores per cluster
-gpgpu_n_cluster_ejection_buffer_size                    8 # number of packets in ejection buffer
-gpgpu_n_ldst_response_buffer_size                    2 # number of response packets in ld/st unit ejection buffer
-gpgpu_shmem_size                   16384 # Size of shared memory per shader core (default 16kB)
-gpgpu_shmem_size                   49152 # Size of shared memory per shader core (default 16kB)
-gpgpu_shmem_size_PrefL1                16384 # Size of shared memory per shader core (default 16kB)
-gpgpu_shmem_size_PrefShared                16384 # Size of shared memory per shader core (default 16kB)
-gpgpu_shmem_num_banks                   32 # Number of banks in the shared memory in each shader core (default 16)
-gpgpu_shmem_limited_broadcast                    0 # Limit shared memory to do one broadcast per cycle (default on)
-gpgpu_shmem_warp_parts                    1 # Number of portions a warp is divided into for shared memory bank conflict check 
-gpgpu_warpdistro_shader                   -1 # Specify which shader core to collect the warp size distribution from
-gpgpu_warp_issue_shader                    0 # Specify which shader core to collect the warp issue distribution from
-gpgpu_local_mem_map                    1 # Mapping from local memory space address to simulated GPU physical address space (default = enabled)
-gpgpu_num_reg_banks                   16 # Number of register banks (default = 8)
-gpgpu_reg_bank_use_warp_id                    0 # Use warp ID in mapping registers to banks (default = off)
-gpgpu_operand_collector_num_units_sp                    6 # number of collector units (default = 4)
-gpgpu_operand_collector_num_units_sfu                    8 # number of collector units (default = 4)
-gpgpu_operand_collector_num_units_mem                    2 # number of collector units (default = 2)
-gpgpu_operand_collector_num_units_gen                    0 # number of collector units (default = 0)
-gpgpu_operand_collector_num_in_ports_sp                    2 # number of collector unit in ports (default = 1)
-gpgpu_operand_collector_num_in_ports_sfu                    1 # number of collector unit in ports (default = 1)
-gpgpu_operand_collector_num_in_ports_mem                    1 # number of collector unit in ports (default = 1)
-gpgpu_operand_collector_num_in_ports_gen                    0 # number of collector unit in ports (default = 0)
-gpgpu_operand_collector_num_out_ports_sp                    2 # number of collector unit in ports (default = 1)
-gpgpu_operand_collector_num_out_ports_sfu                    1 # number of collector unit in ports (default = 1)
-gpgpu_operand_collector_num_out_ports_mem                    1 # number of collector unit in ports (default = 1)
-gpgpu_operand_collector_num_out_ports_gen                    0 # number of collector unit in ports (default = 0)
-gpgpu_coalesce_arch                   13 # Coalescing arch (default = 13, anything else is off for now)
-gpgpu_num_sched_per_core                    2 # Number of warp schedulers per core
-gpgpu_max_insn_issue_per_warp                    1 # Max number of instructions that can be issued per warp in one cycle by scheduler
-gpgpu_simt_core_sim_order                    1 # Select the simulation order of cores in a cluster (0=Fix, 1=Round-Robin)
-gpgpu_pipeline_widths        2,1,1,2,1,1,2 # Pipeline widths ID_OC_SP,ID_OC_SFU,ID_OC_MEM,OC_EX_SP,OC_EX_SFU,OC_EX_MEM,EX_WB
-gpgpu_num_sp_units                     2 # Number of SP units (default=1)
-gpgpu_num_sfu_units                    1 # Number of SF units (default=1)
-gpgpu_num_mem_units                    1 # Number if ldst units (default=1) WARNING: not hooked up to anything
-gpgpu_scheduler                      gto # Scheduler configuration: < lrr | gto | two_level_active > If two_level_active:<num_active_warps>:<inner_prioritization>:<outer_prioritization>For complete list of prioritization values see shader.h enum scheduler_prioritization_typeDefault: gto
-gpgpu_dram_scheduler                    1 # 0 = fifo, 1 = FR-FCFS (defaul)
-gpgpu_dram_partition_queues              8:8:8:8 # i2$:$2d:d2$:$2i
-l2_ideal                               0 # Use a ideal L2 cache that always hit
-gpgpu_cache:dl2     64:128:8,L:B:m:W:L,A:32:4,4:0,32 # unified banked L2 data cache config  {<nsets>:<bsize>:<assoc>,<rep>:<wr>:<alloc>:<wr_alloc>,<mshr>:<N>:<merge>,<mq>}
-gpgpu_cache:dl2_texture_only                    0 # L2 cache used for texture only
-gpgpu_n_mem                            6 # number of memory modules (e.g. memory controllers) in gpu
-gpgpu_n_sub_partition_per_mchannel                    2 # number of memory subpartition in each memory module
-gpgpu_n_mem_per_ctrlr                    2 # number of memory chips per memory controller
-gpgpu_memlatency_stat                   14 # track and display latency statistics 0x2 enables MC, 0x4 enables queue logs
-gpgpu_frfcfs_dram_sched_queue_size                   16 # 0 = unlimited (default); # entries per chip
-gpgpu_dram_return_queue_size                  116 # 0 = unlimited (default); # entries per chip
-gpgpu_dram_buswidth                    4 # default = 4 bytes (8 bytes per cycle at DDR)
-gpgpu_dram_burst_length                    8 # Burst length of each DRAM request (default = 4 data bus cycle)
-dram_data_command_freq_ratio                    4 # Frequency ratio between DRAM data bus and command bus (default = 2 times, i.e. DDR)
-gpgpu_dram_timing_opt nbk=16:CCD=2:RRD=6:RCD=12:RAS=28:RP=12:RC=40: CL=12:WL=4:CDLR=5:WR=12:nbkgrp=4:CCDL=3:RTPL=2 # DRAM timing parameters = {nbk:tCCD:tRRD:tRCD:tRAS:tRP:tRC:CL:WL:tCDLR:tWR:nbkgrp:tCCDL:tRTPL}
-rop_latency                          120 # ROP queue latency (default 85)
-dram_latency                         100 # DRAM latency (default 30)
-gpgpu_mem_addr_mapping dramid@8;00000000.00000000.00000000.00000000.0000RRRR.RRRRRRRR.BBBCCCCB.CCSSSSSS # mapping memory address to dram model {dramid@<start bit>;<memory address map>}
-gpgpu_mem_addr_test                    0 # run sweep test to check address mapping for aliased address
-gpgpu_mem_address_mask                    1 # 0 = old addressing mask, 1 = new addressing mask, 2 = new add. mask + flipped bank sel and chip sel bits
-gpuwattch_xml_file  gpuwattch_gtx480.xml # GPUWattch XML file
-power_simulation_enabled                    1 # Turn on power simulator (1=On, 0=Off)
-power_per_cycle_dump                    0 # Dump detailed power output each cycle
-power_trace_enabled                    0 # produce a file for the power trace (1=On, 0=Off)
-power_trace_zlevel                     6 # Compression level of the power trace output log (0=no comp, 9=highest)
-steady_power_levels_enabled                    0 # produce a file for the steady power levels (1=On, 0=Off)
-steady_state_definition                  8:4 # allowed deviation:number of samples
-gpgpu_max_cycle                        0 # terminates gpu simulation early (0 = no limit)
-gpgpu_max_insn                         0 # terminates gpu simulation early (0 = no limit)
-gpgpu_max_cta                          0 # terminates gpu simulation early (0 = no limit)
-gpgpu_runtime_stat                   500 # display runtime statistics such as dram utilization {<freq>:<flag>}
-liveness_message_freq                    1 # Minimum number of seconds between simulation liveness messages (0 = always print)
-gpgpu_flush_l1_cache                    0 # Flush L1 cache at the end of each kernel call
-gpgpu_flush_l2_cache                    0 # Flush L2 cache at the end of each kernel call
-gpgpu_deadlock_detect                    1 # Stop the simulation at deadlock (1=on (default), 0=off)
-gpgpu_ptx_instruction_classification                    0 # if enabled will classify ptx instruction types per kernel (Max 255 kernels now)
-gpgpu_ptx_sim_mode                     0 # Select between Performance (default) or Functional simulation (1)
-gpgpu_clock_domains 700.0:700.0:700.0:924.0 # Clock Domain Frequencies in MhZ {<Core Clock>:<ICNT Clock>:<L2 Clock>:<DRAM Clock>}
-gpgpu_max_concurrent_kernel                    8 # maximum kernels that can run concurrently on GPU
-gpgpu_cflog_interval                    0 # Interval between each snapshot in control flow logger
-visualizer_enabled                     0 # Turn on visualizer output (1=On, 0=Off)
-visualizer_outputfile                 NULL # Specifies the output log file for visualizer
-visualizer_zlevel                      6 # Compression level of the visualizer output log (0=no comp, 9=highest)
-trace_enabled                          0 # Turn on traces
-trace_components                    none # comma seperated list of traces to enable. Complete list found in trace_streams.tup. Default none
-trace_sampling_core                    0 # The core which is printed using CORE_DPRINTF. Default 0
-trace_sampling_memory_partition                   -1 # The memory partition which is printed using MEMPART_DPRINTF. Default -1 (i.e. all)
-enable_ptx_file_line_stats                    1 # Turn on PTX source line statistic profiling. (1 = On)
-ptx_line_stats_filename gpgpu_inst_stats.txt # Output file for PTX source line statistics.
-save_embedded_ptx                      0 # saves ptx files embedded in binary as <n>.ptx
-keep                                   0 # keep intermediate files created by GPGPU-Sim when interfacing with external programs
-gpgpu_ptx_save_converted_ptxplus                    0 # Saved converted ptxplus to a file
-ptx_opcode_latency_int         4,13,4,5,145 # Opcode latencies for integers <ADD,MAX,MUL,MAD,DIV>Default 1,1,19,25,145
-ptx_opcode_latency_fp          4,13,4,5,39 # Opcode latencies for single precision floating points <ADD,MAX,MUL,MAD,DIV>Default 1,1,1,1,30
-ptx_opcode_latency_dp         8,19,8,8,330 # Opcode latencies for double precision floating points <ADD,MAX,MUL,MAD,DIV>Default 8,8,8,8,335
-ptx_opcode_initiation_int            1,2,2,1,8 # Opcode initiation intervals for integers <ADD,MAX,MUL,MAD,DIV>Default 1,1,4,4,32
-ptx_opcode_initiation_fp            1,2,1,1,4 # Opcode initiation intervals for single precision floating points <ADD,MAX,MUL,MAD,DIV>Default 1,1,1,1,5
-ptx_opcode_initiation_dp         8,16,8,8,130 # Opcode initiation intervals for double precision floating points <ADD,MAX,MUL,MAD,DIV>Default 8,8,8,8,130
DRAM Timing Options:
nbk                                    16 # number of banks
CCD                                     2 # column to column delay
RRD                                     6 # minimal delay between activation of rows in different banks
RCD                                    12 # row to column delay
RAS                                    28 # time needed to activate row
RP                                     12 # time needed to precharge (deactivate) row
RC                                     40 # row cycle time
CDLR                                    5 # switching from write to read (changes tWTR)
WR                                     12 # last data-in to row precharge
CL                                     12 # CAS latency
WL                                      4 # Write latency
nbkgrp                                  4 # number of bank groups
CCDL                                    3 # column to column delay between accesses to different bank groups
RTPL                                    2 # read to precharge delay between accesses to different bank groups
Total number of memory sub partition = 12
addr_dec_mask[CHIP]  = 0000000000000000 	high:64 low:0
addr_dec_mask[BK]    = 000000000000e100 	high:16 low:8
addr_dec_mask[ROW]   = 000000000fff0000 	high:28 low:16
addr_dec_mask[COL]   = 0000000000001eff 	high:13 low:0
addr_dec_mask[BURST] = 000000000000003f 	high:6 low:0
sub_partition_id_mask = 0000000000000100
GPGPU-Sim uArch: clock freqs: 700000000.000000:700000000.000000:700000000.000000:924000000.000000
GPGPU-Sim uArch: clock periods: 0.00000000142857142857:0.00000000142857142857:0.00000000142857142857:0.00000000108225108225
*** Initializing Memory Statistics ***
GPGPU-Sim uArch: interconnect node map (shaderID+MemID to icntID)
GPGPU-Sim uArch: Memory nodes ID start from index: 15
GPGPU-Sim uArch:    0   1   2   3   4
GPGPU-Sim uArch:    5   6   7   8   9
GPGPU-Sim uArch:   10  11  12  13  14
GPGPU-Sim uArch:   15  16  17  18  19
GPGPU-Sim uArch:   20  21  22  23  24
GPGPU-Sim uArch:   25  26
GPGPU-Sim uArch: interconnect node reverse map (icntID to shaderID+MemID)
GPGPU-Sim uArch: Memory nodes start from ID: 15
GPGPU-Sim uArch:    0   1   2   3   4
GPGPU-Sim uArch:    5   6   7   8   9
GPGPU-Sim uArch:   10  11  12  13  14
GPGPU-Sim uArch:   15  16  17  18  19
GPGPU-Sim uArch:   20  21  22  23  24
GPGPU-Sim uArch:   25  26
20ca3b5bfeb128b0910ff77bfd9979fb  /home/gpgpu-sim/Documents/Dynamic_GPU_Cache_Bypass_Project/benchmarks/test/hotspot-rodinia-3.1
GPGPU-Sim uArch: performance model initialization complete.
GPGPU-Sim PTX: __cudaRegisterFatBinary, fat_cubin_handle = 1, filename=hotspot.cu
self exe links to: /home/gpgpu-sim/Documents/Dynamic_GPU_Cache_Bypass_Project/benchmarks/test/hotspot-rodinia-3.1
Running md5sum using "md5sum /home/gpgpu-sim/Documents/Dynamic_GPU_Cache_Bypass_Project/benchmarks/test/hotspot-rodinia-3.1 "
Running cuobjdump using "$CUDA_INSTALL_PATH/bin/cuobjdump -ptx -elf -sass /home/gpgpu-sim/Documents/Dynamic_GPU_Cache_Bypass_Project/benchmarks/test/hotspot-rodinia-3.1 > _cuobjdump_complete_output_8qW0tN"
Parsing file _cuobjdump_complete_output_8qW0tN
######### cuobjdump parser ########
## Adding new section ELF
Adding arch: sm_30
Adding identifier: hotspot.cu
## Adding new section PTX
Adding ptx filename: _cuobjdump_1.ptx
Adding arch: sm_30
Adding identifier: hotspot.cu
## Adding new section ELF
Adding arch: sm_13
Adding identifier: hotspot.cu
## Adding new section PTX
Adding ptx filename: _cuobjdump_2.ptx
Adding arch: sm_13
Adding identifier: hotspot.cu
## Adding new section ELF
Adding arch: sm_20
Adding identifier: hotspot.cu
## Adding new section PTX
Adding ptx filename: _cuobjdump_3.ptx
Adding arch: sm_20
Adding identifier: hotspot.cu
## Adding new section ELF
Adding arch: sm_10
Adding identifier: hotspot.cu
## Adding new section PTX
Adding ptx filename: _cuobjdump_4.ptx
Adding arch: sm_10
Adding identifier: hotspot.cu
Done parsing!!!
GPGPU-Sim PTX: __cudaRegisterFunction _Z14calculate_tempiPfS_S_iiiiffffff : hostFun 0x0x401390, fat_cubin_handle = 1
GPGPU-Sim PTX: allocating shared region for "__cuda_local_var_17095_39_non_const_temp_on_cuda" from 0x0 to 0x400 (shared memory space)
GPGPU-Sim PTX: allocating shared region for "__cuda_local_var_17096_39_non_const_power_on_cuda" from 0x400 to 0x800 (shared memory space)
GPGPU-Sim PTX: allocating shared region for "__cuda_local_var_17097_39_non_const_temp_t" from 0x800 to 0xc00 (shared memory space)
GPGPU-Sim PTX: Warning %temp1 was declared previous at _1.ptx:350 skipping new declaration
GPGPU-Sim PTX: Warning %temp2 was declared previous at _1.ptx:351 skipping new declaration
GPGPU-Sim PTX: instruction assembly for function '_Z14calculate_tempiPfS_S_iiiiffffff'...   done.
GPGPU-Sim PTX: finding reconvergence points for '_Z14calculate_tempiPfS_S_iiiiffffff'...
GPGPU-Sim PTX: Finding dominators for '_Z14calculate_tempiPfS_S_iiiiffffff'...
GPGPU-Sim PTX: Finding immediate dominators for '_Z14calculate_tempiPfS_S_iiiiffffff'...
GPGPU-Sim PTX: Finding postdominators for '_Z14calculate_tempiPfS_S_iiiiffffff'...
GPGPU-Sim PTX: Finding immediate postdominators for '_Z14calculate_tempiPfS_S_iiiiffffff'...
GPGPU-Sim PTX: pre-decoding instructions for '_Z14calculate_tempiPfS_S_iiiiffffff'...
GPGPU-Sim PTX: reconvergence points for _Z14calculate_tempiPfS_S_iiiiffffff...
GPGPU-Sim PTX:  1 (potential) branch divergence @  PC=0x110 (_1.ptx:99) @!%p3 bra BB0_3;
GPGPU-Sim PTX:    immediate post dominator      @  PC=0x238 (_1.ptx:155) bar.sync 0;
GPGPU-Sim PTX:  2 (potential) branch divergence @  PC=0x188 (_1.ptx:123) @!%p6 bra BB0_3;
GPGPU-Sim PTX:    immediate post dominator      @  PC=0x238 (_1.ptx:155) bar.sync 0;
GPGPU-Sim PTX:  3 (potential) branch divergence @  PC=0x3e0 (_1.ptx:223) @%p9 bra BB0_5;
GPGPU-Sim PTX:    immediate post dominator      @  PC=0x760 (_1.ptx:381) cvt.s16.s8 %temp1, %rc7;
GPGPU-Sim PTX:  4 (potential) branch divergence @  PC=0x3e8 (_1.ptx:224) bra.uni BB0_13;
GPGPU-Sim PTX:    immediate post dominator      @  PC=0x760 (_1.ptx:381) cvt.s16.s8 %temp1, %rc7;
GPGPU-Sim PTX:  5 (potential) branch divergence @  PC=0x420 (_1.ptx:236) @!%p12 bra BB0_8;
GPGPU-Sim PTX:    immediate post dominator      @  PC=0x6b0 (_1.ptx:341) bar.sync 0;
GPGPU-Sim PTX:  6 (potential) branch divergence @  PC=0x578 (_1.ptx:292) @%p25 bra BB0_8;
GPGPU-Sim PTX:    immediate post dominator      @  PC=0x6b0 (_1.ptx:341) bar.sync 0;
GPGPU-Sim PTX:  7 (potential) branch divergence @  PC=0x6a0 (_1.ptx:334) bra.uni BB0_9;
GPGPU-Sim PTX:    immediate post dominator      @  PC=0x6b0 (_1.ptx:341) bar.sync 0;
GPGPU-Sim PTX:  8 (potential) branch divergence @  PC=0x6d0 (_1.ptx:346) @%p26 bra BB0_13;
GPGPU-Sim PTX:    immediate post dominator      @  PC=0x760 (_1.ptx:381) cvt.s16.s8 %temp1, %rc7;
GPGPU-Sim PTX:  9 (potential) branch divergence @  PC=0x6f8 (_1.ptx:357) @%p27 bra BB0_12;
GPGPU-Sim PTX:    immediate post dominator      @  PC=0x748 (_1.ptx:372) bar.sync 0;
GPGPU-Sim PTX: 10 (potential) branch divergence @  PC=0x758 (_1.ptx:374) bra.uni BB0_4;
GPGPU-Sim PTX:    immediate post dominator      @  PC=0x3c8 (_1.ptx:219) mov.u32 %r11, %r159;
GPGPU-Sim PTX: 11 (potential) branch divergence @  PC=0x780 (_1.ptx:386) @%p28 bra BB0_15;
GPGPU-Sim PTX:    immediate post dominator      @  PC=0x868 (_1.ptx:432) ret;
GPGPU-Sim PTX: ... end of reconvergence points for _Z14calculate_tempiPfS_S_iiiiffffff
GPGPU-Sim PTX: ... done pre-decoding instructions for '_Z14calculate_tempiPfS_S_iiiiffffff'.
GPGPU-Sim PTX: finished parsing EMBEDDED .ptx file _1.ptx
Adding _cuobjdump_3.ptx with cubin handle 1
GPGPU-Sim PTX: extracting embedded .ptx to temporary file "_ptx_K0U0sj"
Running: cat _ptx_K0U0sj | sed 's/.version 1.5/.version 1.4/' | sed 's/, texmode_independent//' | sed 's/\(\.extern \.const\[1\] .b8 \w\+\)\[\]/\1\[1\]/' | sed 's/const\[.\]/const\[0\]/g' > _ptx2_KIa4rP
GPGPU-Sim PTX: generating ptxinfo using "$CUDA_INSTALL_PATH/bin/ptxas --gpu-name=sm_20 -v _ptx2_KIa4rP --output-file  /dev/null 2> _ptx_K0U0sjinfo"
GPGPU-Sim PTX: Kernel '_Z14calculate_tempiPfS_S_iiiiffffff' : regs=30, lmem=0, smem=3072, cmem=120
GPGPU-Sim PTX: removing ptxinfo using "rm -f _ptx_K0U0sj _ptx2_KIa4rP _ptx_K0U0sjinfo"
GPGPU-Sim PTX: loading globals with explicit initializers... 
GPGPU-Sim PTX: finished loading globals (0 bytes total).
GPGPU-Sim PTX: loading constants with explicit initializers...  done.
WG size of kernel = 16 X 16
pyramidHeight: 2
gridSize: [512, 512]
border:[2, 2]
blockGrid:[43, 43]
targetBlock:[12, 12]
Start computing the transient temperature

GPGPU-Sim PTX: cudaLaunch for 0x0x401390 (mode=performance simulation) on stream 0
GPGPU-Sim PTX: pushing kernel '_Z14calculate_tempiPfS_S_iiiiffffff' to stream 0, gridDim= (43,43,1) blockDim = (16,16,1) 
kernel '_Z14calculate_tempiPfS_S_iiiiffffff' transfer to GPU hardware scheduler
GPGPU-Sim uArch: Shader 1 bind to kernel 1 '_Z14calculate_tempiPfS_S_iiiiffffff'
GPGPU-Sim uArch: CTA/core = 4, limited by: regs
GPGPU-Sim uArch: core:  1, cta: 0 initialized @(1,0)
GPGPU-Sim uArch: Shader 2 bind to kernel 1 '_Z14calculate_tempiPfS_S_iiiiffffff'
GPGPU-Sim uArch: core:  2, cta: 0 initialized @(1,0)
GPGPU-Sim uArch: Shader 3 bind to kernel 1 '_Z14calculate_tempiPfS_S_iiiiffffff'
GPGPU-Sim uArch: core:  3, cta: 0 initialized @(1,0)
GPGPU-Sim uArch: Shader 4 bind to kernel 1 '_Z14calculate_tempiPfS_S_iiiiffffff'
GPGPU-Sim uArch: core:  4, cta: 0 initialized @(1,0)
GPGPU-Sim uArch: Shader 5 bind to kernel 1 '_Z14calculate_tempiPfS_S_iiiiffffff'
GPGPU-Sim uArch: core:  5, cta: 0 initialized @(1,0)
GPGPU-Sim uArch: Shader 6 bind to kernel 1 '_Z14calculate_tempiPfS_S_iiiiffffff'
GPGPU-Sim uArch: core:  6, cta: 0 initialized @(1,0)
GPGPU-Sim uArch: Shader 7 bind to kernel 1 '_Z14calculate_tempiPfS_S_iiiiffffff'
GPGPU-Sim uArch: core:  7, cta: 0 initialized @(1,0)
GPGPU-Sim uArch: Shader 8 bind to kernel 1 '_Z14calculate_tempiPfS_S_iiiiffffff'
GPGPU-Sim uArch: core:  8, cta: 0 initialized @(1,0)
GPGPU-Sim uArch: Shader 9 bind to kernel 1 '_Z14calculate_tempiPfS_S_iiiiffffff'
GPGPU-Sim uArch: core:  9, cta: 0 initialized @(1,0)
GPGPU-Sim uArch: Shader 10 bind to kernel 1 '_Z14calculate_tempiPfS_S_iiiiffffff'
GPGPU-Sim uArch: core: 10, cta: 0 initialized @(1,0)
GPGPU-Sim uArch: Shader 11 bind to kernel 1 '_Z14calculate_tempiPfS_S_iiiiffffff'
GPGPU-Sim uArch: core: 11, cta: 0 initialized @(1,0)
GPGPU-Sim uArch: Shader 12 bind to kernel 1 '_Z14calculate_tempiPfS_S_iiiiffffff'
GPGPU-Sim uArch: core: 12, cta: 0 initialized @(1,0)
GPGPU-Sim uArch: Shader 13 bind to kernel 1 '_Z14calculate_tempiPfS_S_iiiiffffff'
GPGPU-Sim uArch: core: 13, cta: 0 initialized @(1,0)
GPGPU-Sim uArch: Shader 14 bind to kernel 1 '_Z14calculate_tempiPfS_S_iiiiffffff'
GPGPU-Sim uArch: core: 14, cta: 0 initialized @(1,0)
GPGPU-Sim uArch: Shader 0 bind to kernel 1 '_Z14calculate_tempiPfS_S_iiiiffffff'
GPGPU-Sim uArch: core:  0, cta: 0 initialized @(1,0)
GPGPU-Sim uArch: core:  1, cta: 1 initialized @(2,0)
GPGPU-Sim uArch: core:  2, cta: 1 initialized @(2,0)
GPGPU-Sim uArch: core:  3, cta: 1 initialized @(2,0)
GPGPU-Sim uArch: core:  4, cta: 1 initialized @(2,0)
GPGPU-Sim uArch: core:  5, cta: 1 initialized @(2,0)
GPGPU-Sim uArch: core:  6, cta: 1 initialized @(2,0)
GPGPU-Sim uArch: core:  7, cta: 1 initialized @(2,0)
GPGPU-Sim uArch: core:  8, cta: 1 initialized @(2,0)
GPGPU-Sim uArch: core:  9, cta: 1 initialized @(2,0)
GPGPU-Sim uArch: core: 10, cta: 1 initialized @(2,0)
GPGPU-Sim uArch: core: 11, cta: 1 initialized @(2,0)
GPGPU-Sim uArch: core: 12, cta: 1 initialized @(2,0)
GPGPU-Sim uArch: core: 13, cta: 1 initialized @(2,0)
GPGPU-Sim uArch: core: 14, cta: 1 initialized @(2,0)
GPGPU-Sim uArch: core:  0, cta: 1 initialized @(2,0)
GPGPU-Sim uArch: core:  1, cta: 2 initialized @(3,0)
GPGPU-Sim uArch: core:  2, cta: 2 initialized @(3,0)
GPGPU-Sim uArch: core:  3, cta: 2 initialized @(3,0)
GPGPU-Sim uArch: core:  4, cta: 2 initialized @(3,0)
GPGPU-Sim uArch: core:  5, cta: 2 initialized @(3,0)
GPGPU-Sim uArch: core:  6, cta: 2 initialized @(3,0)
GPGPU-Sim uArch: core:  7, cta: 2 initialized @(3,0)
GPGPU-Sim uArch: core:  8, cta: 2 initialized @(3,0)
GPGPU-Sim uArch: core:  9, cta: 2 initialized @(3,0)
GPGPU-Sim uArch: core: 10, cta: 2 initialized @(3,0)
GPGPU-Sim uArch: core: 11, cta: 2 initialized @(3,0)
GPGPU-Sim uArch: core: 12, cta: 2 initialized @(3,0)
GPGPU-Sim uArch: core: 13, cta: 2 initialized @(3,0)
GPGPU-Sim uArch: core: 14, cta: 2 initialized @(3,0)
GPGPU-Sim uArch: core:  0, cta: 2 initialized @(3,0)
GPGPU-Sim uArch: core:  1, cta: 3 initialized @(4,0)
GPGPU-Sim uArch: core:  2, cta: 3 initialized @(4,0)
GPGPU-Sim uArch: core:  3, cta: 3 initialized @(4,0)
GPGPU-Sim uArch: core:  4, cta: 3 initialized @(4,0)
GPGPU-Sim uArch: core:  5, cta: 3 initialized @(4,0)
GPGPU-Sim uArch: core:  6, cta: 3 initialized @(4,0)
GPGPU-Sim uArch: core:  7, cta: 3 initialized @(4,0)
GPGPU-Sim uArch: core:  8, cta: 3 initialized @(4,0)
GPGPU-Sim uArch: core:  9, cta: 3 initialized @(4,0)
GPGPU-Sim uArch: core: 10, cta: 3 initialized @(4,0)
GPGPU-Sim uArch: core: 11, cta: 3 initialized @(4,0)
GPGPU-Sim uArch: core: 12, cta: 3 initialized @(4,0)
GPGPU-Sim uArch: core: 13, cta: 3 initialized @(4,0)
GPGPU-Sim uArch: core: 14, cta: 3 initialized @(4,0)
GPGPU-Sim uArch: core:  0, cta: 3 initialized @(4,0)
GPGPU-Sim uArch: cycles simulated: 500  inst.: 0 (ipc= 0.0) sim_rate=0 (inst/sec) elapsed = 0:0:00:03 / Thu Jan 17 12:49:04 2019
GPGPU-Sim PTX: 100000 instructions simulated : ctaid=(40,0,0) tid=(15,13,0)
GPGPU-Sim PTX: 200000 instructions simulated : ctaid=(17,0,0) tid=(15,5,0)
GPGPU-Sim uArch: cycles simulated: 1000  inst.: 225152 (ipc=225.2) sim_rate=56288 (inst/sec) elapsed = 0:0:00:04 / Thu Jan 17 12:49:05 2019
GPGPU-Sim PTX: 300000 instructions simulated : ctaid=(26,0,0) tid=(15,13,0)
GPGPU-Sim PTX: 400000 instructions simulated : ctaid=(30,0,0) tid=(15,5,0)
GPGPU-Sim PTX: 500000 instructions simulated : ctaid=(8,0,0) tid=(15,9,0)
GPGPU-Sim uArch: cycles simulated: 1500  inst.: 482432 (ipc=321.6) sim_rate=96486 (inst/sec) elapsed = 0:0:00:05 / Thu Jan 17 12:49:06 2019
GPGPU-Sim PTX: 600000 instructions simulated : ctaid=(33,0,0) tid=(15,7,0)
GPGPU-Sim PTX: 700000 instructions simulated : ctaid=(19,0,0) tid=(7,12,0)
GPGPU-Sim PTX: 800000 instructions simulated : ctaid=(38,0,0) tid=(15,3,0)
GPGPU-Sim uArch: cycles simulated: 2000  inst.: 811948 (ipc=406.0) sim_rate=115992 (inst/sec) elapsed = 0:0:00:07 / Thu Jan 17 12:49:08 2019
GPGPU-Sim uArch: cycles simulated: 2500  inst.: 846088 (ipc=338.4) sim_rate=105761 (inst/sec) elapsed = 0:0:00:08 / Thu Jan 17 12:49:09 2019
GPGPU-Sim PTX: 900000 instructions simulated : ctaid=(10,0,0) tid=(3,2,0)
GPGPU-Sim uArch: cycles simulated: 3000  inst.: 905352 (ipc=301.8) sim_rate=100594 (inst/sec) elapsed = 0:0:00:09 / Thu Jan 17 12:49:10 2019
GPGPU-Sim PTX: 1000000 instructions simulated : ctaid=(7,1,0) tid=(15,15,0)
GPGPU-Sim uArch: cycles simulated: 3500  inst.: 1017576 (ipc=290.7) sim_rate=101757 (inst/sec) elapsed = 0:0:00:10 / Thu Jan 17 12:49:11 2019
GPGPU-Sim PTX: 1100000 instructions simulated : ctaid=(6,0,0) tid=(7,9,0)
GPGPU-Sim PTX: 1200000 instructions simulated : ctaid=(20,0,0) tid=(11,12,0)
GPGPU-Sim uArch: cycles simulated: 4000  inst.: 1228992 (ipc=307.2) sim_rate=111726 (inst/sec) elapsed = 0:0:00:11 / Thu Jan 17 12:49:12 2019
GPGPU-Sim PTX: 1300000 instructions simulated : ctaid=(40,0,0) tid=(15,12,0)
GPGPU-Sim PTX: 1400000 instructions simulated : ctaid=(42,0,0) tid=(15,6,0)
GPGPU-Sim PTX: 1500000 instructions simulated : ctaid=(3,1,0) tid=(15,4,0)
GPGPU-Sim PTX: 1600000 instructions simulated : ctaid=(15,0,0) tid=(15,0,0)
GPGPU-Sim uArch: cycles simulated: 4500  inst.: 1598912 (ipc=355.3) sim_rate=133242 (inst/sec) elapsed = 0:0:00:12 / Thu Jan 17 12:49:13 2019
GPGPU-Sim PTX: 1700000 instructions simulated : ctaid=(6,1,0) tid=(15,4,0)
GPGPU-Sim PTX: 1800000 instructions simulated : ctaid=(4,0,0) tid=(15,4,0)
GPGPU-Sim PTX: 1900000 instructions simulated : ctaid=(10,1,0) tid=(15,10,0)
GPGPU-Sim uArch: cycles simulated: 5000  inst.: 1914740 (ipc=382.9) sim_rate=136767 (inst/sec) elapsed = 0:0:00:14 / Thu Jan 17 12:49:15 2019
GPGPU-Sim PTX: 2000000 instructions simulated : ctaid=(27,0,0) tid=(12,12,0)
GPGPU-Sim PTX: 2100000 instructions simulated : ctaid=(8,0,0) tid=(12,2,0)
GPGPU-Sim uArch: cycles simulated: 5500  inst.: 2101796 (ipc=382.1) sim_rate=140119 (inst/sec) elapsed = 0:0:00:15 / Thu Jan 17 12:49:16 2019
GPGPU-Sim PTX: 2200000 instructions simulated : ctaid=(18,0,0) tid=(2,1,0)
GPGPU-Sim PTX: 2300000 instructions simulated : ctaid=(24,0,0) tid=(14,13,0)
GPGPU-Sim PTX: 2400000 instructions simulated : ctaid=(22,0,0) tid=(12,2,0)
GPGPU-Sim uArch: cycles simulated: 6000  inst.: 2355336 (ipc=392.6) sim_rate=147208 (inst/sec) elapsed = 0:0:00:16 / Thu Jan 17 12:49:17 2019
GPGPU-Sim PTX: 2500000 instructions simulated : ctaid=(31,0,0) tid=(2,8,0)
GPGPU-Sim PTX: 2600000 instructions simulated : ctaid=(26,0,0) tid=(10,10,0)
GPGPU-Sim uArch: cycles simulated: 6500  inst.: 2613688 (ipc=402.1) sim_rate=153746 (inst/sec) elapsed = 0:0:00:17 / Thu Jan 17 12:49:18 2019
GPGPU-Sim PTX: 2700000 instructions simulated : ctaid=(4,1,0) tid=(7,1,0)
GPGPU-Sim PTX: 2800000 instructions simulated : ctaid=(16,0,0) tid=(4,5,0)
GPGPU-Sim uArch: cycles simulated: 7000  inst.: 2802771 (ipc=400.4) sim_rate=147514 (inst/sec) elapsed = 0:0:00:19 / Thu Jan 17 12:49:20 2019
GPGPU-Sim PTX: 2900000 instructions simulated : ctaid=(12,0,0) tid=(3,6,0)
GPGPU-Sim PTX: 3000000 instructions simulated : ctaid=(28,0,0) tid=(12,8,0)
GPGPU-Sim PTX: 3100000 instructions simulated : ctaid=(0,0,0) tid=(12,5,0)
GPGPU-Sim uArch: cycles simulated: 7500  inst.: 3042719 (ipc=405.7) sim_rate=152135 (inst/sec) elapsed = 0:0:00:20 / Thu Jan 17 12:49:21 2019
GPGPU-Sim PTX: 3200000 instructions simulated : ctaid=(15,0,0) tid=(13,0,0)
GPGPU-Sim PTX: 3300000 instructions simulated : ctaid=(31,0,0) tid=(11,10,0)
GPGPU-Sim PTX: 3400000 instructions simulated : ctaid=(8,0,0) tid=(7,8,0)
GPGPU-Sim uArch: cycles simulated: 8000  inst.: 3382970 (ipc=422.9) sim_rate=161093 (inst/sec) elapsed = 0:0:00:21 / Thu Jan 17 12:49:22 2019
GPGPU-Sim PTX: 3500000 instructions simulated : ctaid=(39,0,0) tid=(11,3,0)
GPGPU-Sim PTX: 3600000 instructions simulated : ctaid=(40,0,0) tid=(9,8,0)
GPGPU-Sim PTX: 3700000 instructions simulated : ctaid=(29,0,0) tid=(11,4,0)
GPGPU-Sim uArch: cycles simulated: 8500  inst.: 3666896 (ipc=431.4) sim_rate=159430 (inst/sec) elapsed = 0:0:00:23 / Thu Jan 17 12:49:24 2019
GPGPU-Sim PTX: 3800000 instructions simulated : ctaid=(23,0,0) tid=(3,7,0)
GPGPU-Sim PTX: 3900000 instructions simulated : ctaid=(42,0,0) tid=(9,15,0)
GPGPU-Sim PTX: 4000000 instructions simulated : ctaid=(14,0,0) tid=(3,11,0)
GPGPU-Sim uArch: cycles simulated: 9000  inst.: 3943438 (ipc=438.2) sim_rate=164309 (inst/sec) elapsed = 0:0:00:24 / Thu Jan 17 12:49:25 2019
GPGPU-Sim PTX: 4100000 instructions simulated : ctaid=(16,0,0) tid=(9,3,0)
GPGPU-Sim PTX: 4200000 instructions simulated : ctaid=(15,1,0) tid=(11,5,0)
GPGPU-Sim PTX: 4300000 instructions simulated : ctaid=(28,0,0) tid=(3,13,0)
GPGPU-Sim uArch: cycles simulated: 9500  inst.: 4229814 (ipc=445.2) sim_rate=169192 (inst/sec) elapsed = 0:0:00:25 / Thu Jan 17 12:49:26 2019
GPGPU-Sim PTX: 4400000 instructions simulated : ctaid=(34,0,0) tid=(13,9,0)
GPGPU-Sim uArch: Shader 0 finished CTA #0 (9721,0), 3 CTAs running
GPGPU-Sim uArch: core:  0, cta: 0 initialized @(9722,0)
GPGPU-Sim uArch: Shader 9 finished CTA #0 (9749,0), 3 CTAs running
GPGPU-Sim uArch: core:  9, cta: 0 initialized @(9750,0)
GPGPU-Sim uArch: Shader 4 finished CTA #0 (9781,0), 3 CTAs running
GPGPU-Sim uArch: core:  4, cta: 0 initialized @(9782,0)
GPGPU-Sim PTX: 4500000 instructions simulated : ctaid=(15,1,0) tid=(7,14,0)
GPGPU-Sim uArch: Shader 7 finished CTA #0 (9808,0), 3 CTAs running
GPGPU-Sim uArch: core:  7, cta: 0 initialized @(9809,0)
GPGPU-Sim uArch: Shader 13 finished CTA #0 (9822,0), 3 CTAs running
GPGPU-Sim uArch: core: 13, cta: 0 initialized @(9823,0)
GPGPU-Sim uArch: Shader 4 finished CTA #1 (9823,0), 3 CTAs running
GPGPU-Sim uArch: core:  4, cta: 1 initialized @(9824,0)
GPGPU-Sim uArch: Shader 12 finished CTA #0 (9833,0), 3 CTAs running
GPGPU-Sim uArch: core: 12, cta: 0 initialized @(9834,0)
GPGPU-Sim uArch: Shader 1 finished CTA #1 (9855,0), 3 CTAs running
GPGPU-Sim uArch: core:  1, cta: 1 initialized @(9856,0)
GPGPU-Sim uArch: Shader 5 finished CTA #1 (9870,0), 3 CTAs running
GPGPU-Sim uArch: core:  5, cta: 1 initialized @(9871,0)
GPGPU-Sim uArch: Shader 2 finished CTA #1 (9872,0), 3 CTAs running
GPGPU-Sim uArch: core:  2, cta: 1 initialized @(9873,0)
GPGPU-Sim uArch: Shader 8 finished CTA #0 (9884,0), 3 CTAs running
GPGPU-Sim uArch: Shader 14 finished CTA #0 (9884,0), 3 CTAs running
GPGPU-Sim uArch: core:  8, cta: 0 initialized @(9885,0)
GPGPU-Sim uArch: core: 14, cta: 0 initialized @(9885,0)
GPGPU-Sim uArch: Shader 1 finished CTA #0 (9889,0), 3 CTAs running
GPGPU-Sim uArch: core:  1, cta: 0 initialized @(9890,0)
GPGPU-Sim uArch: Shader 9 finished CTA #1 (9923,0), 3 CTAs running
GPGPU-Sim uArch: core:  9, cta: 1 initialized @(9924,0)
GPGPU-Sim uArch: Shader 2 finished CTA #0 (9949,0), 3 CTAs running
GPGPU-Sim uArch: core:  2, cta: 0 initialized @(9950,0)
GPGPU-Sim uArch: Shader 5 finished CTA #0 (9957,0), 3 CTAs running
GPGPU-Sim uArch: core:  5, cta: 0 initialized @(9958,0)
GPGPU-Sim uArch: Shader 10 finished CTA #0 (9971,0), 3 CTAs running
GPGPU-Sim uArch: core: 10, cta: 0 initialized @(9972,0)
GPGPU-Sim uArch: Shader 6 finished CTA #1 (9979,0), 3 CTAs running
GPGPU-Sim uArch: core:  6, cta: 1 initialized @(9980,0)
GPGPU-Sim uArch: Shader 3 finished CTA #1 (9982,0), 3 CTAs running
GPGPU-Sim uArch: core:  3, cta: 1 initialized @(9983,0)
GPGPU-Sim uArch: cycles simulated: 10000  inst.: 4461854 (ipc=446.2) sim_rate=165253 (inst/sec) elapsed = 0:0:00:27 / Thu Jan 17 12:49:28 2019
GPGPU-Sim uArch: Shader 11 finished CTA #0 (10022,0), 3 CTAs running
GPGPU-Sim uArch: core: 11, cta: 0 initialized @(10023,0)
GPGPU-Sim uArch: Shader 13 finished CTA #1 (10026,0), 3 CTAs running
GPGPU-Sim uArch: core: 13, cta: 1 initialized @(10027,0)
GPGPU-Sim uArch: Shader 8 finished CTA #1 (10034,0), 3 CTAs running
GPGPU-Sim uArch: core:  8, cta: 1 initialized @(10035,0)
GPGPU-Sim uArch: Shader 7 finished CTA #1 (10050,0), 3 CTAs running
GPGPU-Sim uArch: core:  7, cta: 1 initialized @(10051,0)
GPGPU-Sim uArch: Shader 10 finished CTA #1 (10060,0), 3 CTAs running
GPGPU-Sim uArch: core: 10, cta: 1 initialized @(10061,0)
GPGPU-Sim uArch: Shader 3 finished CTA #0 (10063,0), 3 CTAs running
GPGPU-Sim uArch: Shader 6 finished CTA #0 (10063,0), 3 CTAs running
GPGPU-Sim uArch: core:  3, cta: 0 initialized @(10064,0)
GPGPU-Sim uArch: core:  6, cta: 0 initialized @(10064,0)
GPGPU-Sim uArch: Shader 0 finished CTA #1 (10068,0), 3 CTAs running
GPGPU-Sim uArch: Shader 11 finished CTA #1 (10068,0), 3 CTAs running
GPGPU-Sim uArch: Shader 14 finished CTA #1 (10068,0), 3 CTAs running
GPGPU-Sim uArch: core: 11, cta: 1 initialized @(10069,0)
GPGPU-Sim uArch: core: 14, cta: 1 initialized @(10069,0)
GPGPU-Sim uArch: core:  0, cta: 1 initialized @(10069,0)
GPGPU-Sim uArch: Shader 12 finished CTA #1 (10070,0), 3 CTAs running
GPGPU-Sim uArch: core: 12, cta: 1 initialized @(10071,0)
GPGPU-Sim PTX: 4600000 instructions simulated : ctaid=(3,1,0) tid=(5,1,0)
GPGPU-Sim uArch: Shader 2 finished CTA #2 (10091,0), 3 CTAs running
GPGPU-Sim uArch: core:  2, cta: 2 initialized @(10092,0)
GPGPU-Sim uArch: Shader 1 finished CTA #2 (10125,0), 3 CTAs running
GPGPU-Sim uArch: core:  1, cta: 2 initialized @(10126,0)
GPGPU-Sim uArch: Shader 14 finished CTA #2 (10145,0), 3 CTAs running
GPGPU-Sim uArch: core: 14, cta: 2 initialized @(10146,0)
GPGPU-Sim uArch: Shader 13 finished CTA #2 (10190,0), 3 CTAs running
GPGPU-Sim uArch: core: 13, cta: 2 initialized @(10191,0)
GPGPU-Sim uArch: Shader 9 finished CTA #2 (10211,0), 3 CTAs running
GPGPU-Sim uArch: core:  9, cta: 2 initialized @(10212,0)
GPGPU-Sim PTX: 4700000 instructions simulated : ctaid=(27,1,0) tid=(13,4,0)
GPGPU-Sim uArch: Shader 0 finished CTA #2 (10234,0), 3 CTAs running
GPGPU-Sim uArch: core:  0, cta: 2 initialized @(10235,0)
GPGPU-Sim uArch: Shader 12 finished CTA #2 (10249,0), 3 CTAs running
GPGPU-Sim uArch: core: 12, cta: 2 initialized @(10250,0)
GPGPU-Sim uArch: Shader 10 finished CTA #2 (10268,0), 3 CTAs running
GPGPU-Sim uArch: core: 10, cta: 2 initialized @(10269,0)
GPGPU-Sim uArch: Shader 11 finished CTA #2 (10273,0), 3 CTAs running
GPGPU-Sim uArch: core: 11, cta: 2 initialized @(10274,0)
GPGPU-Sim uArch: Shader 4 finished CTA #2 (10291,0), 3 CTAs running
GPGPU-Sim uArch: core:  4, cta: 2 initialized @(10292,0)
GPGPU-Sim uArch: Shader 7 finished CTA #2 (10317,0), 3 CTAs running
GPGPU-Sim uArch: core:  7, cta: 2 initialized @(10318,0)
GPGPU-Sim uArch: Shader 5 finished CTA #2 (10320,0), 3 CTAs running
GPGPU-Sim uArch: core:  5, cta: 2 initialized @(10321,0)
GPGPU-Sim uArch: Shader 8 finished CTA #2 (10332,0), 3 CTAs running
GPGPU-Sim uArch: core:  8, cta: 2 initialized @(10333,0)
GPGPU-Sim uArch: Shader 6 finished CTA #2 (10336,0), 3 CTAs running
GPGPU-Sim uArch: core:  6, cta: 2 initialized @(10337,0)
GPGPU-Sim uArch: Shader 3 finished CTA #2 (10348,0), 3 CTAs running
GPGPU-Sim uArch: core:  3, cta: 2 initialized @(10349,0)
GPGPU-Sim PTX: 4800000 instructions simulated : ctaid=(40,1,0) tid=(13,10,0)
GPGPU-Sim PTX: 4900000 instructions simulated : ctaid=(17,1,0) tid=(5,10,0)
GPGPU-Sim uArch: cycles simulated: 10500  inst.: 4783486 (ipc=455.6) sim_rate=170838 (inst/sec) elapsed = 0:0:00:28 / Thu Jan 17 12:49:29 2019
GPGPU-Sim PTX: 5000000 instructions simulated : ctaid=(7,1,0) tid=(3,9,0)
GPGPU-Sim PTX: 5100000 instructions simulated : ctaid=(27,1,0) tid=(13,1,0)
GPGPU-Sim uArch: Shader 10 finished CTA #3 (10826,0), 3 CTAs running
GPGPU-Sim uArch: core: 10, cta: 3 initialized @(10827,0)
GPGPU-Sim uArch: Shader 5 finished CTA #3 (10831,0), 3 CTAs running
GPGPU-Sim uArch: core:  5, cta: 3 initialized @(10832,0)
GPGPU-Sim uArch: Shader 11 finished CTA #3 (10866,0), 3 CTAs running
GPGPU-Sim uArch: core: 11, cta: 3 initialized @(10867,0)
GPGPU-Sim uArch: Shader 0 finished CTA #3 (10924,0), 3 CTAs running
GPGPU-Sim uArch: core:  0, cta: 3 initialized @(10925,0)
GPGPU-Sim uArch: Shader 4 finished CTA #3 (10944,0), 3 CTAs running
GPGPU-Sim uArch: core:  4, cta: 3 initialized @(10945,0)
GPGPU-Sim uArch: Shader 2 finished CTA #3 (10956,0), 3 CTAs running
GPGPU-Sim uArch: core:  2, cta: 3 initialized @(10957,0)
GPGPU-Sim PTX: 5200000 instructions simulated : ctaid=(18,2,0) tid=(5,9,0)
GPGPU-Sim uArch: Shader 6 finished CTA #3 (10971,0), 3 CTAs running
GPGPU-Sim uArch: Shader 9 finished CTA #3 (10971,0), 3 CTAs running
GPGPU-Sim uArch: core:  6, cta: 3 initialized @(10972,0)
GPGPU-Sim uArch: core:  9, cta: 3 initialized @(10972,0)
GPGPU-Sim uArch: Shader 7 finished CTA #3 (10974,0), 3 CTAs running
GPGPU-Sim uArch: core:  7, cta: 3 initialized @(10975,0)
GPGPU-Sim uArch: cycles simulated: 11000  inst.: 5096634 (ipc=463.3) sim_rate=169887 (inst/sec) elapsed = 0:0:00:30 / Thu Jan 17 12:49:31 2019
GPGPU-Sim uArch: Shader 8 finished CTA #3 (11009,0), 3 CTAs running
GPGPU-Sim uArch: core:  8, cta: 3 initialized @(11010,0)
GPGPU-Sim uArch: Shader 13 finished CTA #3 (11012,0), 3 CTAs running
GPGPU-Sim uArch: core: 13, cta: 3 initialized @(11013,0)
GPGPU-Sim uArch: Shader 14 finished CTA #3 (11044,0), 3 CTAs running
GPGPU-Sim uArch: core: 14, cta: 3 initialized @(11045,0)
GPGPU-Sim uArch: Shader 12 finished CTA #3 (11054,0), 3 CTAs running
GPGPU-Sim uArch: core: 12, cta: 3 initialized @(11055,0)
GPGPU-Sim uArch: Shader 1 finished CTA #3 (11075,0), 3 CTAs running
GPGPU-Sim uArch: core:  1, cta: 3 initialized @(11076,0)
GPGPU-Sim uArch: Shader 3 finished CTA #3 (11096,0), 3 CTAs running
GPGPU-Sim uArch: core:  3, cta: 3 initialized @(11097,0)
GPGPU-Sim PTX: 5300000 instructions simulated : ctaid=(32,1,0) tid=(1,15,0)
GPGPU-Sim PTX: 5400000 instructions simulated : ctaid=(22,2,0) tid=(1,11,0)
GPGPU-Sim uArch: cycles simulated: 11500  inst.: 5355810 (ipc=465.7) sim_rate=172768 (inst/sec) elapsed = 0:0:00:31 / Thu Jan 17 12:49:32 2019
GPGPU-Sim PTX: 5500000 instructions simulated : ctaid=(13,2,0) tid=(13,5,0)
GPGPU-Sim PTX: 5600000 instructions simulated : ctaid=(31,2,0) tid=(13,5,0)
GPGPU-Sim PTX: 5700000 instructions simulated : ctaid=(2,2,0) tid=(1,9,0)
GPGPU-Sim uArch: cycles simulated: 12000  inst.: 5570802 (ipc=464.2) sim_rate=168812 (inst/sec) elapsed = 0:0:00:33 / Thu Jan 17 12:49:34 2019
GPGPU-Sim PTX: 5800000 instructions simulated : ctaid=(32,2,0) tid=(13,5,0)
GPGPU-Sim PTX: 5900000 instructions simulated : ctaid=(26,1,0) tid=(9,4,0)
GPGPU-Sim uArch: cycles simulated: 12500  inst.: 5850086 (ipc=468.0) sim_rate=172061 (inst/sec) elapsed = 0:0:00:34 / Thu Jan 17 12:49:35 2019
GPGPU-Sim PTX: 6000000 instructions simulated : ctaid=(31,1,0) tid=(5,3,0)
GPGPU-Sim PTX: 6100000 instructions simulated : ctaid=(18,1,0) tid=(14,3,0)
GPGPU-Sim PTX: 6200000 instructions simulated : ctaid=(36,1,0) tid=(12,14,0)
GPGPU-Sim PTX: 6300000 instructions simulated : ctaid=(21,1,0) tid=(12,10,0)
GPGPU-Sim uArch: cycles simulated: 13000  inst.: 6201306 (ipc=477.0) sim_rate=172258 (inst/sec) elapsed = 0:0:00:36 / Thu Jan 17 12:49:37 2019
GPGPU-Sim PTX: 6400000 instructions simulated : ctaid=(27,1,0) tid=(2,3,0)
GPGPU-Sim PTX: 6500000 instructions simulated : ctaid=(23,1,0) tid=(6,12,0)
GPGPU-Sim PTX: 6600000 instructions simulated : ctaid=(39,1,0) tid=(9,5,0)
GPGPU-Sim uArch: cycles simulated: 13500  inst.: 6517085 (ipc=482.7) sim_rate=176137 (inst/sec) elapsed = 0:0:00:37 / Thu Jan 17 12:49:38 2019
GPGPU-Sim PTX: 6700000 instructions simulated : ctaid=(19,1,0) tid=(8,12,0)
GPGPU-Sim PTX: 6800000 instructions simulated : ctaid=(41,1,0) tid=(1,13,0)
GPGPU-Sim PTX: 6900000 instructions simulated : ctaid=(18,2,0) tid=(14,0,0)
GPGPU-Sim uArch: cycles simulated: 14000  inst.: 6831268 (ipc=487.9) sim_rate=175160 (inst/sec) elapsed = 0:0:00:39 / Thu Jan 17 12:49:40 2019
GPGPU-Sim PTX: 7000000 instructions simulated : ctaid=(23,1,0) tid=(11,12,0)
GPGPU-Sim PTX: 7100000 instructions simulated : ctaid=(9,2,0) tid=(13,3,0)
GPGPU-Sim PTX: 7200000 instructions simulated : ctaid=(11,2,0) tid=(7,6,0)
GPGPU-Sim uArch: cycles simulated: 14500  inst.: 7126530 (ipc=491.5) sim_rate=178163 (inst/sec) elapsed = 0:0:00:40 / Thu Jan 17 12:49:41 2019
GPGPU-Sim PTX: 7300000 instructions simulated : ctaid=(30,1,0) tid=(3,12,0)
GPGPU-Sim uArch: Shader 0 finished CTA #0 (14546,0), 3 CTAs running
GPGPU-Sim uArch: core:  0, cta: 0 initialized @(14547,0)
GPGPU-Sim PTX: 7400000 instructions simulated : ctaid=(2,2,0) tid=(5,7,0)
GPGPU-Sim PTX: 7500000 instructions simulated : ctaid=(36,1,0) tid=(11,8,0)
GPGPU-Sim uArch: Shader 4 finished CTA #0 (14919,0), 3 CTAs running
GPGPU-Sim uArch: core:  4, cta: 0 initialized @(14920,0)
GPGPU-Sim PTX: 7600000 instructions simulated : ctaid=(39,1,0) tid=(15,4,0)
GPGPU-Sim uArch: Shader 8 finished CTA #0 (14980,0), 3 CTAs running
GPGPU-Sim uArch: core:  8, cta: 0 initialized @(14981,0)
GPGPU-Sim uArch: Shader 14 finished CTA #0 (14990,0), 3 CTAs running
GPGPU-Sim uArch: core: 14, cta: 0 initialized @(14991,0)
GPGPU-Sim uArch: cycles simulated: 15000  inst.: 7444180 (ipc=496.3) sim_rate=177242 (inst/sec) elapsed = 0:0:00:42 / Thu Jan 17 12:49:43 2019
GPGPU-Sim uArch: Shader 9 finished CTA #0 (15002,0), 3 CTAs running
GPGPU-Sim uArch: core:  9, cta: 0 initialized @(15003,0)
GPGPU-Sim uArch: Shader 7 finished CTA #0 (15026,0), 3 CTAs running
GPGPU-Sim uArch: core:  7, cta: 0 initialized @(15027,0)
GPGPU-Sim PTX: 7700000 instructions simulated : ctaid=(0,2,0) tid=(7,0,0)
GPGPU-Sim uArch: Shader 11 finished CTA #0 (15174,0), 3 CTAs running
GPGPU-Sim uArch: core: 11, cta: 0 initialized @(15175,0)
GPGPU-Sim uArch: Shader 3 finished CTA #1 (15213,0), 3 CTAs running
GPGPU-Sim uArch: core:  3, cta: 1 initialized @(15214,0)
GPGPU-Sim PTX: 7800000 instructions simulated : ctaid=(18,2,0) tid=(6,7,0)
GPGPU-Sim uArch: Shader 6 finished CTA #1 (15316,0), 3 CTAs running
GPGPU-Sim uArch: core:  6, cta: 1 initialized @(15317,0)
GPGPU-Sim PTX: 7900000 instructions simulated : ctaid=(27,2,0) tid=(1,9,0)
GPGPU-Sim uArch: Shader 10 finished CTA #0 (15398,0), 3 CTAs running
GPGPU-Sim uArch: core: 10, cta: 0 initialized @(15399,0)
GPGPU-Sim uArch: Shader 5 finished CTA #1 (15447,0), 3 CTAs running
GPGPU-Sim uArch: core:  5, cta: 1 initialized @(15448,0)
GPGPU-Sim uArch: Shader 12 finished CTA #0 (15454,0), 3 CTAs running
GPGPU-Sim uArch: core: 12, cta: 0 initialized @(15455,0)
GPGPU-Sim uArch: Shader 1 finished CTA #1 (15479,0), 3 CTAs running
GPGPU-Sim uArch: core:  1, cta: 1 initialized @(15480,0)
GPGPU-Sim uArch: Shader 2 finished CTA #1 (15485,0), 3 CTAs running
GPGPU-Sim uArch: core:  2, cta: 1 initialized @(15486,0)
GPGPU-Sim uArch: cycles simulated: 15500  inst.: 7777106 (ipc=501.7) sim_rate=180862 (inst/sec) elapsed = 0:0:00:43 / Thu Jan 17 12:49:44 2019
GPGPU-Sim uArch: Shader 13 finished CTA #0 (15503,0), 3 CTAs running
GPGPU-Sim uArch: core: 13, cta: 0 initialized @(15504,0)
GPGPU-Sim PTX: 8000000 instructions simulated : ctaid=(23,2,0) tid=(10,4,0)
GPGPU-Sim PTX: 8100000 instructions simulated : ctaid=(26,2,0) tid=(7,9,0)
GPGPU-Sim PTX: 8200000 instructions simulated : ctaid=(4,3,0) tid=(7,5,0)
GPGPU-Sim uArch: cycles simulated: 16000  inst.: 8100554 (ipc=506.3) sim_rate=180012 (inst/sec) elapsed = 0:0:00:45 / Thu Jan 17 12:49:46 2019
GPGPU-Sim PTX: 8300000 instructions simulated : ctaid=(25,2,0) tid=(4,13,0)
GPGPU-Sim uArch: Shader 9 finished CTA #1 (16127,0), 3 CTAs running
GPGPU-Sim uArch: core:  9, cta: 1 initialized @(16128,0)
GPGPU-Sim PTX: 8400000 instructions simulated : ctaid=(39,1,0) tid=(9,4,0)
GPGPU-Sim uArch: Shader 2 finished CTA #0 (16232,0), 3 CTAs running
GPGPU-Sim uArch: core:  2, cta: 0 initialized @(16233,0)
GPGPU-Sim uArch: Shader 5 finished CTA #0 (16262,0), 3 CTAs running
GPGPU-Sim uArch: core:  5, cta: 0 initialized @(16263,0)
GPGPU-Sim PTX: 8500000 instructions simulated : ctaid=(14,2,0) tid=(5,14,0)
GPGPU-Sim uArch: Shader 4 finished CTA #1 (16340,0), 3 CTAs running
GPGPU-Sim uArch: core:  4, cta: 1 initialized @(16341,0)
GPGPU-Sim PTX: 8600000 instructions simulated : ctaid=(11,2,0) tid=(15,1,0)
GPGPU-Sim uArch: Shader 11 finished CTA #1 (16432,0), 3 CTAs running
GPGPU-Sim uArch: core: 11, cta: 1 initialized @(16433,0)
GPGPU-Sim uArch: Shader 12 finished CTA #1 (16494,0), 3 CTAs running
GPGPU-Sim uArch: core: 12, cta: 1 initialized @(16495,0)
GPGPU-Sim uArch: cycles simulated: 16500  inst.: 8451236 (ipc=512.2) sim_rate=183722 (inst/sec) elapsed = 0:0:00:46 / Thu Jan 17 12:49:47 2019
GPGPU-Sim PTX: 8700000 instructions simulated : ctaid=(1,3,0) tid=(7,11,0)
GPGPU-Sim uArch: Shader 1 finished CTA #0 (16571,0), 3 CTAs running
GPGPU-Sim uArch: core:  1, cta: 0 initialized @(16572,0)
GPGPU-Sim uArch: Shader 0 finished CTA #1 (16594,0), 3 CTAs running
GPGPU-Sim uArch: core:  0, cta: 1 initialized @(16595,0)
GPGPU-Sim uArch: Shader 8 finished CTA #1 (16611,0), 3 CTAs running
GPGPU-Sim uArch: core:  8, cta: 1 initialized @(16612,0)
GPGPU-Sim uArch: Shader 14 finished CTA #1 (16646,0), 3 CTAs running
GPGPU-Sim uArch: core: 14, cta: 1 initialized @(16647,0)
GPGPU-Sim uArch: Shader 3 finished CTA #0 (16661,0), 3 CTAs running
GPGPU-Sim uArch: core:  3, cta: 0 initialized @(16662,0)
GPGPU-Sim PTX: 8800000 instructions simulated : ctaid=(23,2,0) tid=(14,11,0)
GPGPU-Sim uArch: Shader 6 finished CTA #0 (16702,0), 3 CTAs running
GPGPU-Sim uArch: core:  6, cta: 0 initialized @(16703,0)
GPGPU-Sim uArch: Shader 7 finished CTA #1 (16703,0), 3 CTAs running
GPGPU-Sim uArch: core:  7, cta: 1 initialized @(16704,0)
GPGPU-Sim uArch: Shader 10 finished CTA #1 (16706,0), 3 CTAs running
GPGPU-Sim uArch: core: 10, cta: 1 initialized @(16707,0)
GPGPU-Sim uArch: Shader 13 finished CTA #1 (16763,0), 3 CTAs running
GPGPU-Sim uArch: core: 13, cta: 1 initialized @(16764,0)
GPGPU-Sim PTX: 8900000 instructions simulated : ctaid=(13,3,0) tid=(1,2,0)
GPGPU-Sim PTX: 9000000 instructions simulated : ctaid=(22,2,0) tid=(6,10,0)
GPGPU-Sim uArch: cycles simulated: 17000  inst.: 8807640 (ipc=518.1) sim_rate=183492 (inst/sec) elapsed = 0:0:00:48 / Thu Jan 17 12:49:49 2019
GPGPU-Sim PTX: 9100000 instructions simulated : ctaid=(0,3,0) tid=(9,6,0)
GPGPU-Sim PTX: 9200000 instructions simulated : ctaid=(2,3,0) tid=(7,12,0)
GPGPU-Sim PTX: 9300000 instructions simulated : ctaid=(10,2,0) tid=(7,6,0)
GPGPU-Sim uArch: cycles simulated: 17500  inst.: 9106040 (ipc=520.3) sim_rate=182120 (inst/sec) elapsed = 0:0:00:50 / Thu Jan 17 12:49:51 2019
GPGPU-Sim PTX: 9400000 instructions simulated : ctaid=(15,3,0) tid=(1,8,0)
GPGPU-Sim uArch: Shader 0 finished CTA #2 (17738,0), 3 CTAs running
GPGPU-Sim uArch: core:  0, cta: 2 initialized @(17739,0)
GPGPU-Sim PTX: 9500000 instructions simulated : ctaid=(25,2,0) tid=(11,13,0)
GPGPU-Sim uArch: Shader 9 finished CTA #2 (17803,0), 3 CTAs running
GPGPU-Sim uArch: core:  9, cta: 2 initialized @(17804,0)
GPGPU-Sim PTX: 9600000 instructions simulated : ctaid=(5,2,0) tid=(9,2,0)
GPGPU-Sim uArch: Shader 8 finished CTA #2 (17965,0), 3 CTAs running
GPGPU-Sim uArch: core:  8, cta: 2 initialized @(17966,0)
GPGPU-Sim uArch: cycles simulated: 18000  inst.: 9391606 (ipc=521.8) sim_rate=184149 (inst/sec) elapsed = 0:0:00:51 / Thu Jan 17 12:49:52 2019
GPGPU-Sim uArch: Shader 14 finished CTA #2 (18024,0), 3 CTAs running
GPGPU-Sim uArch: core: 14, cta: 2 initialized @(18025,0)
GPGPU-Sim uArch: Shader 4 finished CTA #2 (18033,0), 3 CTAs running
GPGPU-Sim uArch: core:  4, cta: 2 initialized @(18034,0)
GPGPU-Sim uArch: Shader 2 finished CTA #2 (18066,0), 3 CTAs running
GPGPU-Sim uArch: core:  2, cta: 2 initialized @(18067,0)
GPGPU-Sim uArch: Shader 7 finished CTA #2 (18075,0), 3 CTAs running
GPGPU-Sim uArch: core:  7, cta: 2 initialized @(18076,0)
GPGPU-Sim uArch: Shader 11 finished CTA #2 (18082,0), 3 CTAs running
GPGPU-Sim uArch: core: 11, cta: 2 initialized @(18083,0)
GPGPU-Sim PTX: 9700000 instructions simulated : ctaid=(25,2,0) tid=(3,13,0)
GPGPU-Sim uArch: Shader 10 finished CTA #2 (18141,0), 3 CTAs running
GPGPU-Sim uArch: core: 10, cta: 2 initialized @(18142,0)
GPGPU-Sim uArch: Shader 13 finished CTA #2 (18203,0), 3 CTAs running
GPGPU-Sim uArch: core: 13, cta: 2 initialized @(18204,0)
GPGPU-Sim uArch: Shader 6 finished CTA #2 (18222,0), 3 CTAs running
GPGPU-Sim uArch: core:  6, cta: 2 initialized @(18223,0)
GPGPU-Sim uArch: Shader 3 finished CTA #2 (18240,0), 3 CTAs running
GPGPU-Sim uArch: core:  3, cta: 2 initialized @(18241,0)
GPGPU-Sim uArch: Shader 5 finished CTA #2 (18244,0), 3 CTAs running
GPGPU-Sim uArch: core:  5, cta: 2 initialized @(18245,0)
GPGPU-Sim PTX: 9800000 instructions simulated : ctaid=(35,2,0) tid=(1,9,0)
GPGPU-Sim uArch: Shader 1 finished CTA #2 (18299,0), 3 CTAs running
GPGPU-Sim uArch: core:  1, cta: 2 initialized @(18300,0)
GPGPU-Sim uArch: Shader 12 finished CTA #2 (18300,0), 3 CTAs running
GPGPU-Sim uArch: core: 12, cta: 2 initialized @(18301,0)
GPGPU-Sim PTX: 9900000 instructions simulated : ctaid=(33,2,0) tid=(7,13,0)
GPGPU-Sim uArch: cycles simulated: 18500  inst.: 9745226 (ipc=526.8) sim_rate=183872 (inst/sec) elapsed = 0:0:00:53 / Thu Jan 17 12:49:54 2019
GPGPU-Sim PTX: 10000000 instructions simulated : ctaid=(24,2,0) tid=(7,8,0)
GPGPU-Sim PTX: 10100000 instructions simulated : ctaid=(24,3,0) tid=(11,1,0)
GPGPU-Sim PTX: 10200000 instructions simulated : ctaid=(39,2,0) tid=(13,15,0)
GPGPU-Sim PTX: 10300000 instructions simulated : ctaid=(21,3,0) tid=(7,4,0)
GPGPU-Sim uArch: cycles simulated: 19000  inst.: 10084830 (ipc=530.8) sim_rate=186756 (inst/sec) elapsed = 0:0:00:54 / Thu Jan 17 12:49:55 2019
GPGPU-Sim PTX: 10400000 instructions simulated : ctaid=(35,2,0) tid=(14,7,0)
GPGPU-Sim uArch: Shader 0 finished CTA #3 (19245,0), 3 CTAs running
GPGPU-Sim uArch: core:  0, cta: 3 initialized @(19246,0)
GPGPU-Sim PTX: 10500000 instructions simulated : ctaid=(9,3,0) tid=(4,6,0)
GPGPU-Sim uArch: Shader 6 finished CTA #3 (19347,0), 3 CTAs running
GPGPU-Sim uArch: core:  6, cta: 3 initialized @(19348,0)
GPGPU-Sim PTX: 10600000 instructions simulated : ctaid=(34,2,0) tid=(10,6,0)
GPGPU-Sim uArch: Shader 4 finished CTA #3 (19415,0), 3 CTAs running
GPGPU-Sim uArch: core:  4, cta: 3 initialized @(19416,0)
GPGPU-Sim uArch: Shader 11 finished CTA #3 (19423,0), 3 CTAs running
GPGPU-Sim uArch: core: 11, cta: 3 initialized @(19424,0)
GPGPU-Sim uArch: cycles simulated: 19500  inst.: 10417315 (ipc=534.2) sim_rate=186023 (inst/sec) elapsed = 0:0:00:56 / Thu Jan 17 12:49:57 2019
GPGPU-Sim uArch: Shader 2 finished CTA #3 (19510,0), 3 CTAs running
GPGPU-Sim uArch: core:  2, cta: 3 initialized @(19511,0)
GPGPU-Sim PTX: 10700000 instructions simulated : ctaid=(24,3,0) tid=(4,4,0)
GPGPU-Sim uArch: Shader 8 finished CTA #3 (19568,0), 3 CTAs running
GPGPU-Sim uArch: core:  8, cta: 3 initialized @(19569,0)
GPGPU-Sim uArch: Shader 14 finished CTA #3 (19573,0), 3 CTAs running
GPGPU-Sim uArch: core: 14, cta: 3 initialized @(19574,0)
GPGPU-Sim uArch: Shader 10 finished CTA #3 (19586,0), 3 CTAs running
GPGPU-Sim uArch: core: 10, cta: 3 initialized @(19587,0)
GPGPU-Sim uArch: Shader 9 finished CTA #3 (19603,0), 3 CTAs running
GPGPU-Sim uArch: core:  9, cta: 3 initialized @(19604,0)
GPGPU-Sim uArch: Shader 7 finished CTA #3 (19614,0), 3 CTAs running
GPGPU-Sim uArch: core:  7, cta: 3 initialized @(19615,0)
GPGPU-Sim uArch: Shader 5 finished CTA #3 (19629,0), 3 CTAs running
GPGPU-Sim uArch: core:  5, cta: 3 initialized @(19630,0)
GPGPU-Sim uArch: Shader 3 finished CTA #3 (19653,0), 3 CTAs running
GPGPU-Sim uArch: core:  3, cta: 3 initialized @(19654,0)
GPGPU-Sim PTX: 10800000 instructions simulated : ctaid=(18,3,0) tid=(14,6,0)
GPGPU-Sim uArch: Shader 13 finished CTA #3 (19810,0), 3 CTAs running
GPGPU-Sim uArch: core: 13, cta: 3 initialized @(19811,0)
GPGPU-Sim PTX: 10900000 instructions simulated : ctaid=(17,3,0) tid=(7,12,0)
GPGPU-Sim uArch: Shader 1 finished CTA #3 (19875,0), 3 CTAs running
GPGPU-Sim uArch: core:  1, cta: 3 initialized @(19876,0)
GPGPU-Sim PTX: 11000000 instructions simulated : ctaid=(11,3,0) tid=(10,13,0)
GPGPU-Sim uArch: Shader 12 finished CTA #3 (19957,0), 3 CTAs running
GPGPU-Sim uArch: core: 12, cta: 3 initialized @(19958,0)
GPGPU-Sim uArch: cycles simulated: 20000  inst.: 10784264 (ipc=539.2) sim_rate=185935 (inst/sec) elapsed = 0:0:00:58 / Thu Jan 17 12:49:59 2019
GPGPU-Sim PTX: 11100000 instructions simulated : ctaid=(42,2,0) tid=(11,2,0)
GPGPU-Sim PTX: 11200000 instructions simulated : ctaid=(4,3,0) tid=(10,12,0)
GPGPU-Sim PTX: 11300000 instructions simulated : ctaid=(42,3,0) tid=(13,8,0)
GPGPU-Sim PTX: 11400000 instructions simulated : ctaid=(42,2,0) tid=(5,5,0)
GPGPU-Sim uArch: cycles simulated: 20500  inst.: 11138374 (ipc=543.3) sim_rate=185639 (inst/sec) elapsed = 0:0:01:00 / Thu Jan 17 12:50:01 2019
GPGPU-Sim PTX: 11500000 instructions simulated : ctaid=(4,3,0) tid=(7,9,0)
GPGPU-Sim PTX: 11600000 instructions simulated : ctaid=(4,4,0) tid=(7,14,0)
GPGPU-Sim PTX: 11700000 instructions simulated : ctaid=(40,3,0) tid=(5,13,0)
GPGPU-Sim uArch: cycles simulated: 21000  inst.: 11428892 (ipc=544.2) sim_rate=187358 (inst/sec) elapsed = 0:0:01:01 / Thu Jan 17 12:50:02 2019
GPGPU-Sim PTX: 11800000 instructions simulated : ctaid=(33,3,0) tid=(9,1,0)
GPGPU-Sim PTX: 11900000 instructions simulated : ctaid=(32,3,0) tid=(3,5,0)
GPGPU-Sim uArch: Shader 0 finished CTA #0 (21368,0), 3 CTAs running
GPGPU-Sim uArch: core:  0, cta: 0 initialized @(21369,0)
GPGPU-Sim uArch: Shader 8 finished CTA #0 (21411,0), 3 CTAs running
GPGPU-Sim uArch: core:  8, cta: 0 initialized @(21412,0)
GPGPU-Sim uArch: Shader 4 finished CTA #0 (21425,0), 3 CTAs running
GPGPU-Sim uArch: core:  4, cta: 0 initialized @(21426,0)
GPGPU-Sim uArch: Shader 9 finished CTA #0 (21456,0), 3 CTAs running
GPGPU-Sim uArch: core:  9, cta: 0 initialized @(21457,0)
GPGPU-Sim PTX: 12000000 instructions simulated : ctaid=(17,3,0) tid=(5,14,0)
GPGPU-Sim uArch: cycles simulated: 21500  inst.: 11733212 (ipc=545.7) sim_rate=186241 (inst/sec) elapsed = 0:0:01:03 / Thu Jan 17 12:50:04 2019
GPGPU-Sim uArch: Shader 6 finished CTA #1 (21583,0), 3 CTAs running
GPGPU-Sim uArch: core:  6, cta: 1 initialized @(21584,0)
GPGPU-Sim PTX: 12100000 instructions simulated : ctaid=(30,3,0) tid=(11,0,0)
GPGPU-Sim uArch: Shader 14 finished CTA #0 (21606,0), 3 CTAs running
GPGPU-Sim uArch: core: 14, cta: 0 initialized @(21607,0)
GPGPU-Sim uArch: Shader 11 finished CTA #0 (21626,0), 3 CTAs running
GPGPU-Sim uArch: core: 11, cta: 0 initialized @(21627,0)
GPGPU-Sim uArch: Shader 3 finished CTA #1 (21651,0), 3 CTAs running
GPGPU-Sim uArch: core:  3, cta: 1 initialized @(21652,0)
GPGPU-Sim uArch: Shader 10 finished CTA #0 (21708,0), 3 CTAs running
GPGPU-Sim uArch: core: 10, cta: 0 initialized @(21709,0)
GPGPU-Sim uArch: Shader 7 finished CTA #0 (21713,0), 3 CTAs running
GPGPU-Sim uArch: core:  7, cta: 0 initialized @(21714,0)
GPGPU-Sim PTX: 12200000 instructions simulated : ctaid=(21,3,0) tid=(5,12,0)
GPGPU-Sim uArch: Shader 2 finished CTA #1 (21784,0), 3 CTAs running
GPGPU-Sim uArch: core:  2, cta: 1 initialized @(21785,0)
GPGPU-Sim uArch: Shader 5 finished CTA #1 (21820,0), 3 CTAs running
GPGPU-Sim uArch: core:  5, cta: 1 initialized @(21821,0)
GPGPU-Sim PTX: 12300000 instructions simulated : ctaid=(10,4,0) tid=(1,13,0)
GPGPU-Sim uArch: Shader 12 finished CTA #0 (21883,0), 3 CTAs running
GPGPU-Sim uArch: core: 12, cta: 0 initialized @(21884,0)
GPGPU-Sim uArch: Shader 1 finished CTA #1 (21891,0), 3 CTAs running
GPGPU-Sim uArch: core:  1, cta: 1 initialized @(21892,0)
GPGPU-Sim uArch: cycles simulated: 22000  inst.: 12086460 (ipc=549.4) sim_rate=188850 (inst/sec) elapsed = 0:0:01:04 / Thu Jan 17 12:50:05 2019
GPGPU-Sim PTX: 12400000 instructions simulated : ctaid=(14,3,0) tid=(3,4,0)
GPGPU-Sim uArch: Shader 13 finished CTA #0 (22119,0), 3 CTAs running
GPGPU-Sim uArch: core: 13, cta: 0 initialized @(22120,0)
GPGPU-Sim PTX: 12500000 instructions simulated : ctaid=(18,3,0) tid=(7,12,0)
GPGPU-Sim PTX: 12600000 instructions simulated : ctaid=(27,3,0) tid=(10,5,0)
GPGPU-Sim PTX: 12700000 instructions simulated : ctaid=(27,3,0) tid=(6,4,0)
GPGPU-Sim uArch: cycles simulated: 22500  inst.: 12421084 (ipc=552.0) sim_rate=188198 (inst/sec) elapsed = 0:0:01:06 / Thu Jan 17 12:50:07 2019
GPGPU-Sim PTX: 12800000 instructions simulated : ctaid=(28,3,0) tid=(12,4,0)
GPGPU-Sim PTX: 12900000 instructions simulated : ctaid=(1,4,0) tid=(10,4,0)
GPGPU-Sim uArch: Shader 9 finished CTA #1 (22832,0), 3 CTAs running
GPGPU-Sim uArch: core:  9, cta: 1 initialized @(22833,0)
GPGPU-Sim uArch: Shader 0 finished CTA #1 (22877,0), 3 CTAs running
GPGPU-Sim uArch: core:  0, cta: 1 initialized @(22878,0)
GPGPU-Sim PTX: 13000000 instructions simulated : ctaid=(26,3,0) tid=(10,11,0)
GPGPU-Sim uArch: cycles simulated: 23000  inst.: 12740972 (ipc=554.0) sim_rate=187367 (inst/sec) elapsed = 0:0:01:08 / Thu Jan 17 12:50:09 2019
GPGPU-Sim uArch: Shader 8 finished CTA #1 (23015,0), 3 CTAs running
GPGPU-Sim uArch: core:  8, cta: 1 initialized @(23016,0)
GPGPU-Sim uArch: Shader 4 finished CTA #1 (23047,0), 3 CTAs running
GPGPU-Sim uArch: core:  4, cta: 1 initialized @(23048,0)
GPGPU-Sim uArch: Shader 2 finished CTA #0 (23052,0), 3 CTAs running
GPGPU-Sim uArch: core:  2, cta: 0 initialized @(23053,0)
GPGPU-Sim PTX: 13100000 instructions simulated : ctaid=(18,3,0) tid=(3,6,0)
GPGPU-Sim uArch: Shader 3 finished CTA #0 (23095,0), 3 CTAs running
GPGPU-Sim uArch: core:  3, cta: 0 initialized @(23096,0)
GPGPU-Sim uArch: Shader 14 finished CTA #1 (23097,0), 3 CTAs running
GPGPU-Sim uArch: core: 14, cta: 1 initialized @(23098,0)
GPGPU-Sim uArch: Shader 11 finished CTA #1 (23111,0), 3 CTAs running
GPGPU-Sim uArch: core: 11, cta: 1 initialized @(23112,0)
GPGPU-Sim uArch: Shader 5 finished CTA #0 (23170,0), 3 CTAs running
GPGPU-Sim uArch: core:  5, cta: 0 initialized @(23171,0)
GPGPU-Sim uArch: Shader 6 finished CTA #0 (23187,0), 3 CTAs running
GPGPU-Sim uArch: core:  6, cta: 0 initialized @(23188,0)
GPGPU-Sim PTX: 13200000 instructions simulated : ctaid=(41,3,0) tid=(8,7,0)
GPGPU-Sim uArch: Shader 12 finished CTA #1 (23262,0), 3 CTAs running
GPGPU-Sim uArch: core: 12, cta: 1 initialized @(23263,0)
GPGPU-Sim PTX: 13300000 instructions simulated : ctaid=(29,4,0) tid=(7,6,0)
GPGPU-Sim uArch: Shader 13 finished CTA #1 (23361,0), 3 CTAs running
GPGPU-Sim uArch: core: 13, cta: 1 initialized @(23362,0)
GPGPU-Sim uArch: Shader 1 finished CTA #0 (23373,0), 3 CTAs running
GPGPU-Sim uArch: core:  1, cta: 0 initialized @(23374,0)
GPGPU-Sim uArch: Shader 10 finished CTA #1 (23391,0), 3 CTAs running
GPGPU-Sim uArch: core: 10, cta: 1 initialized @(23392,0)
GPGPU-Sim uArch: Shader 7 finished CTA #1 (23403,0), 3 CTAs running
GPGPU-Sim uArch: core:  7, cta: 1 initialized @(23404,0)
GPGPU-Sim PTX: 13400000 instructions simulated : ctaid=(37,3,0) tid=(0,13,0)
GPGPU-Sim uArch: cycles simulated: 23500  inst.: 13108660 (ipc=557.8) sim_rate=189980 (inst/sec) elapsed = 0:0:01:09 / Thu Jan 17 12:50:10 2019
GPGPU-Sim PTX: 13500000 instructions simulated : ctaid=(29,3,0) tid=(5,6,0)
GPGPU-Sim PTX: 13600000 instructions simulated : ctaid=(36,3,0) tid=(4,15,0)
GPGPU-Sim PTX: 13700000 instructions simulated : ctaid=(17,4,0) tid=(5,2,0)
GPGPU-Sim uArch: cycles simulated: 24000  inst.: 13461484 (ipc=560.9) sim_rate=189598 (inst/sec) elapsed = 0:0:01:11 / Thu Jan 17 12:50:12 2019
GPGPU-Sim PTX: 13800000 instructions simulated : ctaid=(28,4,0) tid=(1,0,0)
GPGPU-Sim PTX: 13900000 instructions simulated : ctaid=(29,4,0) tid=(13,7,0)
GPGPU-Sim PTX: 14000000 instructions simulated : ctaid=(35,3,0) tid=(3,12,0)
GPGPU-Sim uArch: cycles simulated: 24500  inst.: 13759464 (ipc=561.6) sim_rate=188485 (inst/sec) elapsed = 0:0:01:13 / Thu Jan 17 12:50:14 2019
GPGPU-Sim PTX: 14100000 instructions simulated : ctaid=(11,4,0) tid=(8,11,0)
GPGPU-Sim PTX: 14200000 instructions simulated : ctaid=(38,3,0) tid=(7,0,0)
GPGPU-Sim PTX: 14300000 instructions simulated : ctaid=(13,4,0) tid=(4,13,0)
GPGPU-Sim uArch: Shader 3 finished CTA #2 (24883,0), 3 CTAs running
GPGPU-Sim uArch: core:  3, cta: 2 initialized @(24884,0)
GPGPU-Sim uArch: Shader 6 finished CTA #2 (24916,0), 3 CTAs running
GPGPU-Sim uArch: core:  6, cta: 2 initialized @(24917,0)
GPGPU-Sim PTX: 14400000 instructions simulated : ctaid=(15,4,0) tid=(8,2,0)
GPGPU-Sim uArch: Shader 0 finished CTA #2 (24975,0), 3 CTAs running
GPGPU-Sim uArch: core:  0, cta: 2 initialized @(24976,0)
GPGPU-Sim uArch: Shader 5 finished CTA #2 (24994,0), 3 CTAs running
GPGPU-Sim uArch: core:  5, cta: 2 initialized @(24995,0)
GPGPU-Sim uArch: cycles simulated: 25000  inst.: 14092646 (ipc=563.7) sim_rate=190441 (inst/sec) elapsed = 0:0:01:14 / Thu Jan 17 12:50:15 2019
GPGPU-Sim uArch: Shader 9 finished CTA #2 (25010,0), 3 CTAs running
GPGPU-Sim uArch: core:  9, cta: 2 initialized @(25011,0)
GPGPU-Sim uArch: Shader 8 finished CTA #2 (25022,0), 3 CTAs running
GPGPU-Sim uArch: core:  8, cta: 2 initialized @(25023,0)
GPGPU-Sim uArch: Shader 11 finished CTA #2 (25083,0), 3 CTAs running
GPGPU-Sim uArch: core: 11, cta: 2 initialized @(25084,0)
GPGPU-Sim PTX: 14500000 instructions simulated : ctaid=(10,4,0) tid=(7,0,0)
GPGPU-Sim uArch: Shader 4 finished CTA #2 (25101,0), 3 CTAs running
GPGPU-Sim uArch: core:  4, cta: 2 initialized @(25102,0)
GPGPU-Sim uArch: Shader 14 finished CTA #2 (25108,0), 3 CTAs running
GPGPU-Sim uArch: core: 14, cta: 2 initialized @(25109,0)
GPGPU-Sim PTX: 14600000 instructions simulated : ctaid=(12,4,0) tid=(4,7,0)
GPGPU-Sim uArch: Shader 2 finished CTA #2 (25224,0), 3 CTAs running
GPGPU-Sim uArch: core:  2, cta: 2 initialized @(25225,0)
GPGPU-Sim uArch: Shader 7 finished CTA #2 (25232,0), 3 CTAs running
GPGPU-Sim uArch: core:  7, cta: 2 initialized @(25233,0)
GPGPU-Sim uArch: Shader 10 finished CTA #2 (25282,0), 3 CTAs running
GPGPU-Sim uArch: core: 10, cta: 2 initialized @(25283,0)
GPGPU-Sim uArch: Shader 12 finished CTA #2 (25289,0), 3 CTAs running
GPGPU-Sim uArch: Shader 13 finished CTA #2 (25289,0), 3 CTAs running
GPGPU-Sim uArch: core: 12, cta: 2 initialized @(25290,0)
GPGPU-Sim uArch: core: 13, cta: 2 initialized @(25290,0)
GPGPU-Sim PTX: 14700000 instructions simulated : ctaid=(39,4,0) tid=(15,9,0)
GPGPU-Sim uArch: Shader 1 finished CTA #2 (25369,0), 3 CTAs running
GPGPU-Sim uArch: core:  1, cta: 2 initialized @(25370,0)
GPGPU-Sim PTX: 14800000 instructions simulated : ctaid=(37,3,0) tid=(7,4,0)
GPGPU-Sim uArch: cycles simulated: 25500  inst.: 14459206 (ipc=567.0) sim_rate=190252 (inst/sec) elapsed = 0:0:01:16 / Thu Jan 17 12:50:17 2019
GPGPU-Sim PTX: 14900000 instructions simulated : ctaid=(6,5,0) tid=(11,3,0)
GPGPU-Sim PTX: 15000000 instructions simulated : ctaid=(0,5,0) tid=(1,10,0)
GPGPU-Sim PTX: 15100000 instructions simulated : ctaid=(1,5,0) tid=(1,8,0)
GPGPU-Sim uArch: cycles simulated: 26000  inst.: 14775990 (ipc=568.3) sim_rate=189435 (inst/sec) elapsed = 0:0:01:18 / Thu Jan 17 12:50:19 2019
GPGPU-Sim PTX: 15200000 instructions simulated : ctaid=(6,5,0) tid=(3,8,0)
GPGPU-Sim uArch: Shader 0 finished CTA #3 (26183,0), 3 CTAs running
GPGPU-Sim uArch: core:  0, cta: 3 initialized @(26184,0)
GPGPU-Sim PTX: 15300000 instructions simulated : ctaid=(29,4,0) tid=(15,4,0)
GPGPU-Sim uArch: Shader 9 finished CTA #3 (26360,0), 3 CTAs running
GPGPU-Sim uArch: core:  9, cta: 3 initialized @(26361,0)
GPGPU-Sim PTX: 15400000 instructions simulated : ctaid=(25,4,0) tid=(11,6,0)
GPGPU-Sim uArch: cycles simulated: 26500  inst.: 15105906 (ipc=570.0) sim_rate=191214 (inst/sec) elapsed = 0:0:01:19 / Thu Jan 17 12:50:20 2019
GPGPU-Sim PTX: 15500000 instructions simulated : ctaid=(34,4,0) tid=(11,15,0)
GPGPU-Sim uArch: Shader 4 finished CTA #3 (26542,0), 3 CTAs running
GPGPU-Sim uArch: core:  4, cta: 3 initialized @(26543,0)
GPGPU-Sim uArch: Shader 11 finished CTA #3 (26604,0), 3 CTAs running
GPGPU-Sim uArch: core: 11, cta: 3 initialized @(26605,0)
GPGPU-Sim PTX: 15600000 instructions simulated : ctaid=(26,4,0) tid=(7,7,0)
GPGPU-Sim uArch: Shader 2 finished CTA #3 (26677,0), 3 CTAs running
GPGPU-Sim uArch: core:  2, cta: 3 initialized @(26678,0)
GPGPU-Sim uArch: Shader 8 finished CTA #3 (26684,0), 3 CTAs running
GPGPU-Sim uArch: core:  8, cta: 3 initialized @(26685,0)
GPGPU-Sim uArch: Shader 10 finished CTA #3 (26688,0), 3 CTAs running
GPGPU-Sim uArch: core: 10, cta: 3 initialized @(26689,0)
GPGPU-Sim uArch: Shader 6 finished CTA #3 (26689,0), 3 CTAs running
GPGPU-Sim uArch: core:  6, cta: 3 initialized @(26690,0)
GPGPU-Sim uArch: Shader 7 finished CTA #3 (26703,0), 3 CTAs running
GPGPU-Sim uArch: core:  7, cta: 3 initialized @(26704,0)
GPGPU-Sim uArch: Shader 14 finished CTA #3 (26731,0), 3 CTAs running
GPGPU-Sim uArch: core: 14, cta: 3 initialized @(26732,0)
GPGPU-Sim uArch: Shader 3 finished CTA #3 (26788,0), 3 CTAs running
GPGPU-Sim uArch: core:  3, cta: 3 initialized @(26789,0)
GPGPU-Sim uArch: Shader 1 finished CTA #3 (26797,0), 3 CTAs running
GPGPU-Sim uArch: core:  1, cta: 3 initialized @(26798,0)
GPGPU-Sim PTX: 15700000 instructions simulated : ctaid=(35,4,0) tid=(15,1,0)
GPGPU-Sim uArch: Shader 5 finished CTA #3 (26840,0), 3 CTAs running
GPGPU-Sim uArch: core:  5, cta: 3 initialized @(26841,0)
GPGPU-Sim uArch: Shader 13 finished CTA #3 (26917,0), 3 CTAs running
GPGPU-Sim uArch: core: 13, cta: 3 initialized @(26918,0)
GPGPU-Sim PTX: 15800000 instructions simulated : ctaid=(24,4,0) tid=(6,5,0)
GPGPU-Sim uArch: Shader 12 finished CTA #3 (26963,0), 3 CTAs running
GPGPU-Sim uArch: core: 12, cta: 3 initialized @(26964,0)
GPGPU-Sim uArch: cycles simulated: 27000  inst.: 15468180 (ipc=572.9) sim_rate=190965 (inst/sec) elapsed = 0:0:01:21 / Thu Jan 17 12:50:22 2019
GPGPU-Sim PTX: 15900000 instructions simulated : ctaid=(28,4,0) tid=(8,2,0)
GPGPU-Sim PTX: 16000000 instructions simulated : ctaid=(9,4,0) tid=(13,12,0)
GPGPU-Sim PTX: 16100000 instructions simulated : ctaid=(10,4,0) tid=(3,5,0)
GPGPU-Sim uArch: cycles simulated: 27500  inst.: 15806936 (ipc=574.8) sim_rate=190445 (inst/sec) elapsed = 0:0:01:23 / Thu Jan 17 12:50:24 2019
GPGPU-Sim PTX: 16200000 instructions simulated : ctaid=(35,4,0) tid=(8,1,0)
GPGPU-Sim PTX: 16300000 instructions simulated : ctaid=(15,5,0) tid=(11,9,0)
GPGPU-Sim PTX: 16400000 instructions simulated : ctaid=(33,4,0) tid=(14,14,0)
GPGPU-Sim uArch: cycles simulated: 28000  inst.: 16103876 (ipc=575.1) sim_rate=189457 (inst/sec) elapsed = 0:0:01:25 / Thu Jan 17 12:50:26 2019
GPGPU-Sim PTX: 16500000 instructions simulated : ctaid=(16,4,0) tid=(3,12,0)
GPGPU-Sim PTX: 16600000 instructions simulated : ctaid=(39,4,0) tid=(15,13,0)
GPGPU-Sim uArch: Shader 6 finished CTA #1 (28277,0), 3 CTAs running
GPGPU-Sim uArch: core:  6, cta: 1 initialized @(28278,0)
GPGPU-Sim uArch: Shader 0 finished CTA #0 (28294,0), 3 CTAs running
GPGPU-Sim uArch: core:  0, cta: 0 initialized @(28295,0)
GPGPU-Sim uArch: Shader 9 finished CTA #0 (28298,0), 3 CTAs running
GPGPU-Sim uArch: core:  9, cta: 0 initialized @(28299,0)
GPGPU-Sim PTX: 16700000 instructions simulated : ctaid=(37,4,0) tid=(7,2,0)
GPGPU-Sim uArch: Shader 8 finished CTA #0 (28352,0), 3 CTAs running
GPGPU-Sim uArch: core:  8, cta: 0 initialized @(28353,0)
GPGPU-Sim uArch: Shader 4 finished CTA #0 (28414,0), 3 CTAs running
GPGPU-Sim uArch: core:  4, cta: 0 initialized @(28415,0)
GPGPU-Sim PTX: 16800000 instructions simulated : ctaid=(9,5,0) tid=(5,1,0)
GPGPU-Sim uArch: Shader 3 finished CTA #1 (28440,0), 3 CTAs running
GPGPU-Sim uArch: core:  3, cta: 1 initialized @(28441,0)
GPGPU-Sim uArch: Shader 11 finished CTA #0 (28466,0), 3 CTAs running
GPGPU-Sim uArch: core: 11, cta: 0 initialized @(28467,0)
GPGPU-Sim uArch: Shader 5 finished CTA #1 (28497,0), 3 CTAs running
GPGPU-Sim uArch: core:  5, cta: 1 initialized @(28498,0)
GPGPU-Sim uArch: cycles simulated: 28500  inst.: 16447234 (ipc=577.1) sim_rate=189048 (inst/sec) elapsed = 0:0:01:27 / Thu Jan 17 12:50:28 2019
GPGPU-Sim uArch: Shader 14 finished CTA #0 (28526,0), 3 CTAs running
GPGPU-Sim uArch: core: 14, cta: 0 initialized @(28527,0)
GPGPU-Sim PTX: 16900000 instructions simulated : ctaid=(28,5,0) tid=(15,15,0)
GPGPU-Sim uArch: Shader 7 finished CTA #0 (28606,0), 3 CTAs running
GPGPU-Sim uArch: core:  7, cta: 0 initialized @(28607,0)
GPGPU-Sim uArch: Shader 2 finished CTA #1 (28655,0), 3 CTAs running
GPGPU-Sim uArch: core:  2, cta: 1 initialized @(28656,0)
GPGPU-Sim PTX: 17000000 instructions simulated : ctaid=(31,4,0) tid=(13,0,0)
GPGPU-Sim uArch: Shader 10 finished CTA #0 (28702,0), 3 CTAs running
GPGPU-Sim uArch: core: 10, cta: 0 initialized @(28703,0)
GPGPU-Sim uArch: Shader 12 finished CTA #0 (28721,0), 3 CTAs running
GPGPU-Sim uArch: core: 12, cta: 0 initialized @(28722,0)
GPGPU-Sim uArch: Shader 13 finished CTA #0 (28830,0), 3 CTAs running
GPGPU-Sim uArch: core: 13, cta: 0 initialized @(28831,0)
GPGPU-Sim PTX: 17100000 instructions simulated : ctaid=(36,4,0) tid=(11,8,0)
GPGPU-Sim uArch: Shader 1 finished CTA #1 (28879,0), 3 CTAs running
GPGPU-Sim uArch: core:  1, cta: 1 initialized @(28880,0)
GPGPU-Sim PTX: 17200000 instructions simulated : ctaid=(22,5,0) tid=(14,10,0)
GPGPU-Sim uArch: cycles simulated: 29000  inst.: 16807815 (ipc=579.6) sim_rate=190997 (inst/sec) elapsed = 0:0:01:28 / Thu Jan 17 12:50:29 2019
GPGPU-Sim PTX: 17300000 instructions simulated : ctaid=(34,4,0) tid=(11,13,0)
GPGPU-Sim PTX: 17400000 instructions simulated : ctaid=(40,4,0) tid=(14,15,0)
GPGPU-Sim PTX: 17500000 instructions simulated : ctaid=(13,5,0) tid=(9,2,0)
GPGPU-Sim uArch: cycles simulated: 29500  inst.: 17123738 (ipc=580.5) sim_rate=190263 (inst/sec) elapsed = 0:0:01:30 / Thu Jan 17 12:50:31 2019
GPGPU-Sim PTX: 17600000 instructions simulated : ctaid=(12,5,0) tid=(5,3,0)
GPGPU-Sim PTX: 17700000 instructions simulated : ctaid=(31,5,0) tid=(14,1,0)
GPGPU-Sim PTX: 17800000 instructions simulated : ctaid=(28,4,0) tid=(5,7,0)
GPGPU-Sim uArch: Shader 0 finished CTA #1 (29912,0), 3 CTAs running
GPGPU-Sim uArch: core:  0, cta: 1 initialized @(29913,0)
GPGPU-Sim uArch: Shader 9 finished CTA #1 (29920,0), 3 CTAs running
GPGPU-Sim uArch: core:  9, cta: 1 initialized @(29921,0)
GPGPU-Sim uArch: Shader 8 finished CTA #1 (29980,0), 3 CTAs running
GPGPU-Sim uArch: core:  8, cta: 1 initialized @(29981,0)
GPGPU-Sim uArch: cycles simulated: 30000  inst.: 17455197 (ipc=581.8) sim_rate=189730 (inst/sec) elapsed = 0:0:01:32 / Thu Jan 17 12:50:33 2019
GPGPU-Sim uArch: Shader 4 finished CTA #1 (30020,0), 3 CTAs running
GPGPU-Sim uArch: core:  4, cta: 1 initialized @(30021,0)
GPGPU-Sim PTX: 17900000 instructions simulated : ctaid=(29,5,0) tid=(14,6,0)
GPGPU-Sim uArch: Shader 14 finished CTA #1 (30074,0), 3 CTAs running
GPGPU-Sim uArch: core: 14, cta: 1 initialized @(30075,0)
GPGPU-Sim uArch: Shader 2 finished CTA #0 (30075,0), 3 CTAs running
GPGPU-Sim uArch: core:  2, cta: 0 initialized @(30076,0)
GPGPU-Sim uArch: Shader 3 finished CTA #0 (30103,0), 3 CTAs running
GPGPU-Sim uArch: core:  3, cta: 0 initialized @(30104,0)
GPGPU-Sim uArch: Shader 11 finished CTA #1 (30144,0), 3 CTAs running
GPGPU-Sim uArch: core: 11, cta: 1 initialized @(30145,0)
GPGPU-Sim PTX: 18000000 instructions simulated : ctaid=(20,5,0) tid=(13,5,0)
GPGPU-Sim uArch: Shader 12 finished CTA #1 (30179,0), 3 CTAs running
GPGPU-Sim uArch: core: 12, cta: 1 initialized @(30180,0)
GPGPU-Sim uArch: Shader 5 finished CTA #0 (30238,0), 3 CTAs running
GPGPU-Sim uArch: core:  5, cta: 0 initialized @(30239,0)
GPGPU-Sim uArch: Shader 6 finished CTA #0 (30273,0), 3 CTAs running
GPGPU-Sim uArch: core:  6, cta: 0 initialized @(30274,0)
GPGPU-Sim PTX: 18100000 instructions simulated : ctaid=(16,5,0) tid=(10,3,0)
GPGPU-Sim uArch: Shader 13 finished CTA #1 (30369,0), 3 CTAs running
GPGPU-Sim uArch: core: 13, cta: 1 initialized @(30370,0)
GPGPU-Sim uArch: Shader 7 finished CTA #1 (30398,0), 3 CTAs running
GPGPU-Sim uArch: core:  7, cta: 1 initialized @(30399,0)
GPGPU-Sim PTX: 18200000 instructions simulated : ctaid=(21,5,0) tid=(13,6,0)
GPGPU-Sim uArch: Shader 10 finished CTA #1 (30433,0), 3 CTAs running
GPGPU-Sim uArch: core: 10, cta: 1 initialized @(30434,0)
GPGPU-Sim uArch: Shader 1 finished CTA #0 (30454,0), 3 CTAs running
GPGPU-Sim uArch: core:  1, cta: 0 initialized @(30455,0)
GPGPU-Sim uArch: cycles simulated: 30500  inst.: 17825368 (ipc=584.4) sim_rate=189631 (inst/sec) elapsed = 0:0:01:34 / Thu Jan 17 12:50:35 2019
GPGPU-Sim PTX: 18300000 instructions simulated : ctaid=(9,5,0) tid=(15,14,0)
GPGPU-Sim PTX: 18400000 instructions simulated : ctaid=(42,5,0) tid=(13,5,0)
GPGPU-Sim PTX: 18500000 instructions simulated : ctaid=(18,5,0) tid=(10,9,0)
GPGPU-Sim PTX: 18600000 instructions simulated : ctaid=(1,5,0) tid=(3,6,0)
GPGPU-Sim uArch: cycles simulated: 31000  inst.: 18162390 (ipc=585.9) sim_rate=191183 (inst/sec) elapsed = 0:0:01:35 / Thu Jan 17 12:50:36 2019
GPGPU-Sim PTX: 18700000 instructions simulated : ctaid=(41,4,0) tid=(13,5,0)
GPGPU-Sim PTX: 18800000 instructions simulated : ctaid=(19,5,0) tid=(12,10,0)
GPGPU-Sim uArch: cycles simulated: 31500  inst.: 18447434 (ipc=585.6) sim_rate=190179 (inst/sec) elapsed = 0:0:01:37 / Thu Jan 17 12:50:38 2019
GPGPU-Sim PTX: 18900000 instructions simulated : ctaid=(12,5,0) tid=(1,15,0)
GPGPU-Sim uArch: Shader 0 finished CTA #2 (31549,0), 3 CTAs running
GPGPU-Sim uArch: core:  0, cta: 2 initialized @(31550,0)
GPGPU-Sim PTX: 19000000 instructions simulated : ctaid=(10,6,0) tid=(7,10,0)
GPGPU-Sim uArch: Shader 5 finished CTA #2 (31680,0), 3 CTAs running
GPGPU-Sim uArch: core:  5, cta: 2 initialized @(31681,0)
GPGPU-Sim uArch: Shader 9 finished CTA #2 (31716,0), 3 CTAs running
GPGPU-Sim uArch: core:  9, cta: 2 initialized @(31717,0)
GPGPU-Sim uArch: Shader 3 finished CTA #2 (31734,0), 3 CTAs running
GPGPU-Sim uArch: core:  3, cta: 2 initialized @(31735,0)
GPGPU-Sim PTX: 19100000 instructions simulated : ctaid=(18,5,0) tid=(13,11,0)
GPGPU-Sim uArch: Shader 6 finished CTA #2 (31809,0), 3 CTAs running
GPGPU-Sim uArch: core:  6, cta: 2 initialized @(31810,0)
GPGPU-Sim PTX: 19200000 instructions simulated : ctaid=(36,5,0) tid=(7,3,0)
GPGPU-Sim uArch: cycles simulated: 32000  inst.: 18795340 (ipc=587.4) sim_rate=189851 (inst/sec) elapsed = 0:0:01:39 / Thu Jan 17 12:50:40 2019
GPGPU-Sim uArch: Shader 11 finished CTA #2 (32019,0), 3 CTAs running
GPGPU-Sim uArch: core: 11, cta: 2 initialized @(32020,0)
GPGPU-Sim PTX: 19300000 instructions simulated : ctaid=(20,5,0) tid=(3,4,0)
GPGPU-Sim uArch: Shader 4 finished CTA #2 (32067,0), 3 CTAs running
GPGPU-Sim uArch: core:  4, cta: 2 initialized @(32068,0)
GPGPU-Sim uArch: Shader 8 finished CTA #2 (32071,0), 3 CTAs running
GPGPU-Sim uArch: core:  8, cta: 2 initialized @(32072,0)
GPGPU-Sim uArch: Shader 7 finished CTA #2 (32083,0), 3 CTAs running
GPGPU-Sim uArch: core:  7, cta: 2 initialized @(32084,0)
GPGPU-Sim uArch: Shader 14 finished CTA #2 (32091,0), 3 CTAs running
GPGPU-Sim uArch: core: 14, cta: 2 initialized @(32092,0)
GPGPU-Sim uArch: Shader 2 finished CTA #2 (32092,0), 3 CTAs running
GPGPU-Sim uArch: core:  2, cta: 2 initialized @(32093,0)
GPGPU-Sim uArch: Shader 12 finished CTA #2 (32115,0), 3 CTAs running
GPGPU-Sim uArch: core: 12, cta: 2 initialized @(32116,0)
GPGPU-Sim uArch: Shader 1 finished CTA #2 (32166,0), 3 CTAs running
GPGPU-Sim uArch: core:  1, cta: 2 initialized @(32167,0)
GPGPU-Sim uArch: Shader 10 finished CTA #2 (32191,0), 3 CTAs running
GPGPU-Sim uArch: core: 10, cta: 2 initialized @(32192,0)
GPGPU-Sim uArch: Shader 13 finished CTA #2 (32203,0), 3 CTAs running
GPGPU-Sim uArch: core: 13, cta: 2 initialized @(32204,0)
GPGPU-Sim PTX: 19400000 instructions simulated : ctaid=(21,5,0) tid=(15,8,0)
GPGPU-Sim PTX: 19500000 instructions simulated : ctaid=(21,5,0) tid=(13,1,0)
GPGPU-Sim PTX: 19600000 instructions simulated : ctaid=(21,6,0) tid=(7,5,0)
GPGPU-Sim uArch: cycles simulated: 32500  inst.: 19149844 (ipc=589.2) sim_rate=191498 (inst/sec) elapsed = 0:0:01:40 / Thu Jan 17 12:50:41 2019
GPGPU-Sim PTX: 19700000 instructions simulated : ctaid=(38,5,0) tid=(12,11,0)
GPGPU-Sim PTX: 19800000 instructions simulated : ctaid=(30,5,0) tid=(6,15,0)
GPGPU-Sim PTX: 19900000 instructions simulated : ctaid=(22,5,0) tid=(3,8,0)
GPGPU-Sim uArch: cycles simulated: 33000  inst.: 19458998 (ipc=589.7) sim_rate=190774 (inst/sec) elapsed = 0:0:01:42 / Thu Jan 17 12:50:43 2019
GPGPU-Sim PTX: 20000000 instructions simulated : ctaid=(15,6,0) tid=(5,2,0)
GPGPU-Sim uArch: Shader 9 finished CTA #3 (33118,0), 3 CTAs running
GPGPU-Sim uArch: core:  9, cta: 3 initialized @(33119,0)
[...]
gpgpu_stall_shd_mem[l_mem_ld][wb_icnt_rc] = 0
gpgpu_stall_shd_mem[l_mem_ld][wb_rsrv_fail] = 0
gpgpu_stall_shd_mem[l_mem_st][mshr_rc] = 0
gpgpu_stall_shd_mem[l_mem_st][icnt_rc] = 0
gpgpu_stall_shd_mem[l_mem_ld][wb_icnt_rc] = 0
gpgpu_stall_shd_mem[l_mem_ld][wb_rsrv_fail] = 0
gpu_reg_bank_conflict_stalls = 0
Warp Occupancy Distribution:
Stall:785841	W0_Idle:45154	W0_Scoreboard:522891	W1:0	W2:256	W3:0	W4:14792	W5:0	W6:0	W7:0	W8:15048	W9:3864	W10:256	W11:0	W12:0	W13:3864	W14:161868	W15:84	W16:16640	W17:0	W18:11776	W19:84	W20:7140	W21:0	W22:0	W23:0	W24:1338720	W25:0	W26:11776	W27:0	W28:1126184	W29:0	W30:0	W31:0	W32:2449792
traffic_breakdown_coretomem[CONST_ACC_R] = 120 {8:15,}
traffic_breakdown_coretomem[GLOBAL_ACC_R] = 668032 {8:83504,}
traffic_breakdown_coretomem[GLOBAL_ACC_W] = 1970176 {40:10752,72:10752,136:5632,}
traffic_breakdown_coretomem[INST_ACC_R] = 40088 {8:5011,}
traffic_breakdown_memtocore[CONST_ACC_R] = 1080 {72:15,}
traffic_breakdown_memtocore[GLOBAL_ACC_R] = 11356544 {136:83504,}
traffic_breakdown_memtocore[GLOBAL_ACC_W] = 217088 {8:27136,}
traffic_breakdown_memtocore[INST_ACC_R] = 681496 {136:5011,}
maxmrqlatency = 177 
maxdqlatency = 0 
maxmflatency = 719 
averagemflatency = 211 
max_icnt2mem_latency = 352 
max_icnt2sh_latency = 218399 
mrq_lat_table:21509 	2228 	1537 	3376 	8008 	5088 	3204 	114 	0 	0 	0 	0 	0 	0 	0 	0 	0 	0 	0 	0 	0 	0 	0 	0 	0 	0 	0 	0 	0 	0 	0 	0 	
dq_lat_table:0 	0 	0 	0 	0 	0 	0 	0 	0 	0 	0 	0 	0 	0 	0 	0 	0 	0 	0 	0 	0 	0 	0 	0 	0 	0 	0 	0 	0 	0 	0 	0 	
mf_lat_table:0 	0 	0 	0 	0 	0 	0 	73584 	36674 	397 	0 	0 	0 	0 	0 	0 	0 	0 	0 	0 	0 	0 	0 	0 	0 	0 	0 	0 	0 	0 	0 	0 	
icnt2mem_lat_table:0 	0 	0 	84320 	15115 	14026 	1864 	314 	27 	0 	0 	0 	0 	0 	0 	0 	0 	0 	0 	0 	0 	0 	0 	0 	
icnt2sh_lat_table:0 	0 	0 	29291 	46506 	7663 	59 	0 	0 	0 	0 	0 	0 	1174 	2150 	4224 	8424 	11164 	0 	0 	0 	0 	0 	0 	
mf_lat_pw_table:0 	0 	0 	0 	0 	0 	0 	409 	14 	0 	0 	0 	0 	0 	0 	0 	0 	0 	0 	0 	0 	0 	0 	0 	0 	0 	0 	0 	0 	0 	0 	0 	
maximum concurrent accesses to same row:
dram[0]:       124       133        87       103        97       107       106        95        89        94        96       106        83       101       101       114 
dram[1]:       112       110        99       106        97        95       101       102        95        93        92        90        86        98        88       114 
dram[2]:       134       124       104        86       107        99        92       106        96        91       107        95       103        88       115       100 
dram[3]:       107       111       107        97        94        95       102       101        94        97        90        95        97        86       112        91 
dram[4]:       122       135        87       104        99       105       109        93        90        98        95       108        84       103        99       114 
dram[5]:       111       104        96       104        94        94       101       103        98        96        92        89        85        95        90       112 
maximum service time to same row:
dram[0]:     24010     24156     24519     25263     24171     26059     34685     34966     34976     35666     35239     34868     34533     35920     35146     34778 
dram[1]:     25096     24375     24025     25584     24610     26297     34904     36541     35660     37091     36335     34896     34662     35002     34711     36087 
dram[2]:     24157     24379     25262     24636     26059     24184     34962     34698     35610     34979     34882     34718     35918     33967     34802     34347 
dram[3]:     24372     25622     25582     24228     26303     24634     36537     34865     37239     35446     34876     35591     34994     34347     36085     34363 
dram[4]:     23600     26109     24519     25794     25288     26059     34678     34974     34957     35332     35244     34514     34532     35525     35132     34428 
dram[5]:     25095     24857     24017     26048     24626     26649     34915     36514     35645     36941     36343     34628     34664     34229     34713     35349 
average row accesses per activate:
dram[0]:  7.239437  7.211267  5.395349  5.000000  6.111111  5.666667  6.294872  4.920000  5.619048  5.010309  4.860215  5.021505  4.361702  4.580645  5.930555  5.763158 
dram[1]:  6.706666  6.616438  4.890000  6.212500  4.600000  5.373626  5.302083  5.750000  5.400000  5.260870  5.000000  4.966292  4.622222  4.940476  4.825582  6.712121 
dram[2]:  6.986301  8.912281  5.180851  5.621951  5.741573  6.111111  4.692307  5.963415  5.126316  6.064103  4.855670  4.806452  5.071429  4.600000  5.512500  4.988372 
dram[3]:  6.101266  6.592105  6.097561  4.509259  5.373626  4.580952  6.540541  5.204082  5.159575  5.797619  4.945055  4.625000  4.600000  4.644444  7.245902  5.212500 
dram[4]:  7.671642  7.314286  5.787500  4.735294  6.125000  5.593407  6.150000  4.813725  5.756098  5.072917  4.890110  4.814433  4.467391  4.580645  5.207317  5.353659 
dram[5]:  6.354430  5.443182  4.673077  5.964286  4.878788  5.041237  5.677778  5.833333  6.075000  4.959184  4.663158  4.784946  4.727273  4.577778  5.662162  6.500000 
average row locality = 45064/8327 = 5.411793
number of total memory accesses made:
dram[0]:         0         0         0         0         0         0         0         0         0         0         0         0         0         0         0         0 
dram[1]:         0         0         0         0         0         0         0         0         0         0         0         0         0         0         0         0 
dram[2]:         0         0         0         0         0         0         0         0         0         0         0         0         0         0         0         0 
dram[3]:         0         0         0         0         0         0         0         0         0         0         0         0         0         0         0         0 
dram[4]:         0         0         0         0         0         0         0         0         0         0         0         0         0         0         0         0 
dram[5]:         0         0         0         0         0         0         0         0         0         0         0         0         0         0         0         0 
total accesses: 0
min_bank_accesses = 0!
min_chip_accesses = 0!
number of total read accesses:
dram[0]:       259       258       256       256       256       256       256       256       256       256       256       256       256       256       256       256 
dram[1]:       258       258       256       256       256       256       256       256       256       256       256       256       256       256       256       256 
dram[2]:       258       257       256       256       256       256       256       256       256       256       256       256       256       256       256       256 
dram[3]:       258       256       256       256       256       256       256       256       256       256       256       256       256       256       256       256 
dram[4]:       258       256       256       256       256       256       256       256       256       256       256       256       256       256       256       256 
dram[5]:       258       256       256       256       256       256       256       256       256       256       256       256       256       256       256       256 
total reads: 24594
bank skew: 259/256 = 1.01
chip skew: 4101/4098 = 1.00
number of total write accesses:
dram[0]:       255       254       208       224       239       254       235       236       216       230       196       211       154       170       171       182 
dram[1]:       245       225       233       241       227       233       253       227       230       228       189       186       160       159       159       187 
dram[2]:       252       251       231       205       255       239       232       233       231       217       215       191       170       158       185       173 
dram[3]:       224       245       244       231       233       225       228       254       229       231       194       188       158       162       186       161 
dram[4]:       256       256       207       227       234       253       236       235       216       231       189       211       155       170       171       183 
dram[5]:       244       223       230       245       227       233       255       234       230       230       187       189       160       156       163       186 
total reads: 20470
bank skew: 256/154 = 1.66
chip skew: 3438/3382 = 1.02
average mf latency per bank:
dram[0]:        479       495       468       505       467       490       522       540       481       507       546       571       598       605       530       572
dram[1]:        489       504       477       488       490       493       494       537       473       501       547       566       589       617       565       556
dram[2]:        487       477       485       477       478       469       513       518       486       492       536       550       583       590       559       541
dram[3]:        490       482       475       470       472       490       505       503       486       487       533       557       595       596       545       566
dram[4]:        485       481       490       490       479       479       525       509       495       494       561       534       607       581       547       556
dram[5]:        494       490       488       472       507       479       533       499       497       483       594       542       612       579       582       548
maximum mf latency per bank:
dram[0]:        629       501       392       474       584       592       625       614       539       449       625       522       619       512       453       429
dram[1]:        700       529       429       441       641       545       642       676       378       575       479       479       509       649       426       453
dram[2]:        496       621       494       427       558       491       494       528       466       543       453       545       454       537       458       472
dram[3]:        476       631       451       398       432       512       533       504       521       499       387       509       549       551       433       395
dram[4]:        640       529       411       565       526       433       531       485       483       460       521       412       519       431       451       446
dram[5]:        629       492       392       445       662       446       719       452       436       424       641       398       551       457       397       439
Memory Partition 0: 
Cache L2_bank_000:
MSHR contents

Cache L2_bank_001:
MSHR contents

In Dram Latency Queue (total = 0): 
DRAM[0]: 16 bks, busW=4 BL=8 CL=12, tRRD=2 tCCD=6, tRCD=12 tRAS=28 tRP=12 tRC=40
n_cmd=288287 n_nop=272560 n_act=1375 n_pre=1359 n_req=7536 n_rd=8202 n_write=4791 bw_util=0.09014
n_activity=111149 dram_eff=0.2338
bk0: 518a 281780i bk1: 516a 281885i bk2: 512a 282095i bk3: 512a 281499i bk4: 512a 281729i bk5: 512a 281585i bk6: 512a 281832i bk7: 512a 281349i bk8: 512a 282114i bk9: 512a 281873i bk10: 512a 282106i bk11: 512a 282076i bk12: 512a 282435i bk13: 512a 282379i bk14: 512a 282839i bk15: 512a 282800i 
dram_util_bins: 0 0 0 0 0 0 0 0 0 0
dram_eff_bins: 0 0 0 0 0 0 0 0 0 0
mrqq: max=16 avg=0.590106
Memory Partition 1: 
Cache L2_bank_002:
MSHR contents

Cache L2_bank_003:
MSHR contents

In Dram Latency Queue (total = 0): 
DRAM[1]: 16 bks, busW=4 BL=8 CL=12, tRRD=2 tCCD=6, tRCD=12 tRAS=28 tRP=12 tRC=40
n_cmd=288287 n_nop=272485 n_act=1390 n_pre=1374 n_req=7482 n_rd=8200 n_write=4838 bw_util=0.09045
n_activity=111070 dram_eff=0.2348
bk0: 516a 281759i bk1: 516a 281614i bk2: 512a 281225i bk3: 512a 282014i bk4: 512a 281112i bk5: 512a 281554i bk6: 512a 281205i bk7: 512a 281661i bk8: 512a 281639i bk9: 512a 281281i bk10: 512a 282125i bk11: 512a 282413i bk12: 512a 282589i bk13: 512a 282650i bk14: 512a 282443i bk15: 512a 283028i 
dram_util_bins: 0 0 0 0 0 0 0 0 0 0
dram_eff_bins: 0 0 0 0 0 0 0 0 0 0
mrqq: max=16 avg=0.526198
Memory Partition 2: 
Cache L2_bank_004:
MSHR contents

Cache L2_bank_005:
MSHR contents

In Dram Latency Queue (total = 0): 
DRAM[2]: 16 bks, busW=4 BL=8 CL=12, tRRD=2 tCCD=6, tRCD=12 tRAS=28 tRP=12 tRC=40
n_cmd=288287 n_nop=272583 n_act=1365 n_pre=1349 n_req=7537 n_rd=8198 n_write=4792 bw_util=0.09012
n_activity=111603 dram_eff=0.2328
bk0: 516a 281798i bk1: 514a 282324i bk2: 512a 281562i bk3: 512a 282101i bk4: 512a 281571i bk5: 512a 281745i bk6: 512a 281298i bk7: 512a 281800i bk8: 512a 281649i bk9: 512a 282295i bk10: 512a 281931i bk11: 512a 282048i bk12: 512a 282776i bk13: 512a 282624i bk14: 512a 282444i bk15: 512a 282472i 
dram_util_bins: 0 0 0 0 0 0 0 0 0 0
dram_eff_bins: 0 0 0 0 0 0 0 0 0 0
mrqq: max=16 avg=0.609001
Memory Partition 3: 
Cache L2_bank_006:
MSHR contents

Cache L2_bank_007:
MSHR contents

In Dram Latency Queue (total = 0): 
DRAM[3]: 16 bks, busW=4 BL=8 CL=12, tRRD=2 tCCD=6, tRCD=12 tRAS=28 tRP=12 tRC=40
n_cmd=288287 n_nop=272463 n_act=1399 n_pre=1383 n_req=7491 n_rd=8196 n_write=4846 bw_util=0.09048
n_activity=112026 dram_eff=0.2328
bk0: 516a 281713i bk1: 512a 281723i bk2: 512a 281780i bk3: 512a 281116i bk4: 512a 281762i bk5: 512a 281371i bk6: 512a 281848i bk7: 512a 281148i bk8: 512a 281302i bk9: 512a 281857i bk10: 512a 282245i bk11: 512a 282077i bk12: 512a 282601i bk13: 512a 282662i bk14: 512a 283096i bk15: 512a 282701i 
dram_util_bins: 0 0 0 0 0 0 0 0 0 0
dram_eff_bins: 0 0 0 0 0 0 0 0 0 0
mrqq: max=16 avg=0.540576
Memory Partition 4: 
Cache L2_bank_008:
MSHR contents

Cache L2_bank_009:
MSHR contents

In Dram Latency Queue (total = 0): 
DRAM[4]: 16 bks, busW=4 BL=8 CL=12, tRRD=2 tCCD=6, tRCD=12 tRAS=28 tRP=12 tRC=40
n_cmd=288287 n_nop=272552 n_act=1387 n_pre=1371 n_req=7528 n_rd=8196 n_write=4781 bw_util=0.09003
n_activity=111825 dram_eff=0.2321
bk0: 516a 281888i bk1: 512a 282028i bk2: 512a 282074i bk3: 512a 281319i bk4: 512a 281680i bk5: 512a 281439i bk6: 512a 281771i bk7: 512a 281202i bk8: 512a 282035i bk9: 512a 281657i bk10: 512a 282258i bk11: 512a 281954i bk12: 512a 282664i bk13: 512a 282468i bk14: 512a 282645i bk15: 512a 282441i 
dram_util_bins: 0 0 0 0 0 0 0 0 0 0
dram_eff_bins: 0 0 0 0 0 0 0 0 0 0
mrqq: max=16 avg=0.584178
Memory Partition 5: 
Cache L2_bank_010:
MSHR contents

Cache L2_bank_011:
MSHR contents

In Dram Latency Queue (total = 0): 
DRAM[5]: 16 bks, busW=4 BL=8 CL=12, tRRD=2 tCCD=6, tRCD=12 tRAS=28 tRP=12 tRC=40
n_cmd=288287 n_nop=272432 n_act=1411 n_pre=1395 n_req=7490 n_rd=8196 n_write=4853 bw_util=0.09053
n_activity=111828 dram_eff=0.2334
bk0: 516a 281646i bk1: 512a 281570i bk2: 512a 281190i bk3: 512a 281904i bk4: 512a 281280i bk5: 512a 281498i bk6: 512a 281320i bk7: 512a 281705i bk8: 512a 281816i bk9: 512a 281392i bk10: 512a 282151i bk11: 512a 282206i bk12: 512a 282496i bk13: 512a 282458i bk14: 512a 282736i bk15: 512a 282861i 
dram_util_bins: 0 0 0 0 0 0 0 0 0 0
dram_eff_bins: 0 0 0 0 0 0 0 0 0 0
mrqq: max=16 avg=0.522219

========= L2 cache stats =========
L2_cache_bank[0]: Access = 10269, Miss = 2051, Miss_rate = 0.200, Pending_hits = 1500, Reservation_fails = 342
L2_cache_bank[1]: Access = 10391, Miss = 2050, Miss_rate = 0.197, Pending_hits = 1676, Reservation_fails = 234
L2_cache_bank[2]: Access = 9208, Miss = 2050, Miss_rate = 0.223, Pending_hits = 1593, Reservation_fails = 218
L2_cache_bank[3]: Access = 9535, Miss = 2050, Miss_rate = 0.215, Pending_hits = 1575, Reservation_fails = 119
L2_cache_bank[4]: Access = 9414, Miss = 2050, Miss_rate = 0.218, Pending_hits = 1669, Reservation_fails = 156
L2_cache_bank[5]: Access = 10562, Miss = 2049, Miss_rate = 0.194, Pending_hits = 1503, Reservation_fails = 94
L2_cache_bank[6]: Access = 9225, Miss = 2050, Miss_rate = 0.222, Pending_hits = 1597, Reservation_fails = 74
L2_cache_bank[7]: Access = 9166, Miss = 2048, Miss_rate = 0.223, Pending_hits = 1601, Reservation_fails = 0
L2_cache_bank[8]: Access = 9845, Miss = 2050, Miss_rate = 0.208, Pending_hits = 1481, Reservation_fails = 174
L2_cache_bank[9]: Access = 9333, Miss = 2048, Miss_rate = 0.219, Pending_hits = 1677, Reservation_fails = 12
L2_cache_bank[10]: Access = 9510, Miss = 2050, Miss_rate = 0.216, Pending_hits = 1598, Reservation_fails = 237
L2_cache_bank[11]: Access = 9208, Miss = 2048, Miss_rate = 0.222, Pending_hits = 1589, Reservation_fails = 0
L2_total_cache_accesses = 115666
L2_total_cache_misses = 24594
L2_total_cache_miss_rate = 0.2126
L2_total_cache_pending_hits = 19059
L2_total_cache_reservation_fails = 1660
L2_total_cache_breakdown:
	L2_cache_stats_breakdown[GLOBAL_ACC_R][HIT] = 55489
	L2_cache_stats_breakdown[GLOBAL_ACC_R][HIT_RESERVED] = 11631
	L2_cache_stats_breakdown[GLOBAL_ACC_R][MISS] = 16384
	L2_cache_stats_breakdown[GLOBAL_ACC_R][RESERVATION_FAIL] = 209
	L2_cache_stats_breakdown[CONST_ACC_R][HIT] = 11
	L2_cache_stats_breakdown[CONST_ACC_R][HIT_RESERVED] = 3
	L2_cache_stats_breakdown[CONST_ACC_R][MISS] = 1
	L2_cache_stats_breakdown[CONST_ACC_R][RESERVATION_FAIL] = 109
	L2_cache_stats_breakdown[GLOBAL_ACC_W][HIT] = 11566
	L2_cache_stats_breakdown[GLOBAL_ACC_W][HIT_RESERVED] = 7378
	L2_cache_stats_breakdown[GLOBAL_ACC_W][MISS] = 8192
	L2_cache_stats_breakdown[GLOBAL_ACC_W][RESERVATION_FAIL] = 1
	L2_cache_stats_breakdown[INST_ACC_R][HIT] = 4947
	L2_cache_stats_breakdown[INST_ACC_R][HIT_RESERVED] = 47
	L2_cache_stats_breakdown[INST_ACC_R][MISS] = 17
	L2_cache_stats_breakdown[INST_ACC_R][RESERVATION_FAIL] = 1341
L2_cache_data_port_util = 0.108
L2_cache_fill_port_util = 0.038

icnt_total_pkts_mem_to_simt=469756
icnt_total_pkts_simt_to_mem=170450
LD_mem_lat_dist  0 0 0 0 0 0 0 0 0 0 0 0 0 0 0 0 0 0 0 0 0 0 0 0 0 0 0
ST_mem_lat_dist  0 0 0 0 0 0 0 0 0 0 0 0 0 0 0 0 0 0 0 0 0 0 0 0 0 0 0
----------------------------Interconnect-DETAILS--------------------------------
Class 0:
Packet latency average = 14.2324
	minimum = 6
	maximum = 178
Network latency average = 12.0795
	minimum = 6
	maximum = 178
Slowest packet = 8886
Flit latency average = 10.7735
	minimum = 6
	maximum = 178
Slowest flit = 24048
Fragmentation average = 0
	minimum = 0
	maximum = 0
Injected packet rate average = 0.0392301
	minimum = 0.0340247 (at node 12)
	maximum = 0.0483608 (at node 20)
Accepted packet rate average = 0.0392301
	minimum = 0.0340247 (at node 12)
	maximum = 0.0483608 (at node 20)
Injected flit rate average = 0.108568
	minimum = 0.0512134 (at node 2)
	maximum = 0.2012 (at node 20)
Accepted flit rate average= 0.108568
	minimum = 0.0630311 (at node 24)
	maximum = 0.150101 (at node 7)
Injected packet length average = 2.76748
Accepted packet length average = 2.76748
Total in-flight flits = 0 (0 measured)
====== Overall Traffic Statistics ======
====== Traffic class 0 ======
Packet latency average = 14.2324 (1 samples)
	minimum = 6 (1 samples)
	maximum = 178 (1 samples)
Network latency average = 12.0795 (1 samples)
	minimum = 6 (1 samples)
	maximum = 178 (1 samples)
Flit latency average = 10.7735 (1 samples)
	minimum = 6 (1 samples)
	maximum = 178 (1 samples)
Fragmentation average = 0 (1 samples)
	minimum = 0 (1 samples)
	maximum = 0 (1 samples)
Injected packet rate average = 0.0392301 (1 samples)
	minimum = 0.0340247 (1 samples)
	maximum = 0.0483608 (1 samples)
Accepted packet rate average = 0.0392301 (1 samples)
	minimum = 0.0340247 (1 samples)
	maximum = 0.0483608 (1 samples)
Injected flit rate average = 0.108568 (1 samples)
	minimum = 0.0512134 (1 samples)
	maximum = 0.2012 (1 samples)
Accepted flit rate average = 0.108568 (1 samples)
	minimum = 0.0630311 (1 samples)
	maximum = 0.150101 (1 samples)
Injected packet size average = 2.76748 (1 samples)
Accepted packet size average = 2.76748 (1 samples)
Hops average = 1 (1 samples)
----------------------------END-of-Interconnect-DETAILS-------------------------


gpgpu_simulation_time = 0 days, 0 hrs, 12 min, 37 sec (757 sec)
gpgpu_simulation_rate = 187730 (inst/sec)
gpgpu_simulation_rate = 288 (cycle/sec)
Ending simulation
