

        *** GPGPU-Sim Simulator Version 3.2.2  [build 0] ***


GPGPU-Sim PTX: simulation mode 0 (can change with PTX_SIM_MODE_FUNC environment variable:
               1=functional simulation only, 0=detailed performance simulator)
GPGPU-Sim: Configuration options:

-network_mode                           1 # Interconnection network mode
-inter_config_file   config_fermi_islip.icnt # Interconnection network config file
-gpgpu_ptx_use_cuobjdump                    1 # Use cuobjdump to extract ptx and sass from binaries
-gpgpu_experimental_lib_support                    0 # Try to extract code from cuda libraries [Broken because of unknown cudaGetExportTable]
-gpgpu_ptx_convert_to_ptxplus                    0 # Convert SASS (native ISA) to ptxplus and run ptxplus
-gpgpu_ptx_force_max_capability                   20 # Force maximum compute capability
-gpgpu_ptx_inst_debug_to_file                    0 # Dump executed instructions' debug information to file
-gpgpu_ptx_inst_debug_file       inst_debug.txt # Executed instructions' debug output file
-gpgpu_ptx_inst_debug_thread_uid                    1 # Thread UID for executed instructions' debug output
-gpgpu_simd_model                       1 # 1 = post-dominator
-gpgpu_shader_core_pipeline              1536:32 # shader core pipeline config, i.e., {<nthread>:<warpsize>}
-gpgpu_tex_cache:l1  4:128:24,L:R:m:N:L,F:128:4,128:2 # per-shader L1 texture cache  (READ-ONLY) config  {<nsets>:<bsize>:<assoc>,<rep>:<wr>:<alloc>:<wr_alloc>,<mshr>:<N>:<merge>,<mq>:<rf>}
-gpgpu_const_cache:l1 64:64:2,L:R:f:N:L,A:2:32,4 # per-shader L1 constant memory cache  (READ-ONLY) config  {<nsets>:<bsize>:<assoc>,<rep>:<wr>:<alloc>:<wr_alloc>,<mshr>:<N>:<merge>,<mq>} 
-gpgpu_cache:il1     4:128:4,L:R:f:N:L,A:2:32,4 # shader L1 instruction cache config  {<nsets>:<bsize>:<assoc>,<rep>:<wr>:<alloc>:<wr_alloc>,<mshr>:<N>:<merge>,<mq>} 
-gpgpu_cache:dl1     32:128:4,L:L:m:N:H,A:32:8,8 # per-shader L1 data cache config  {<nsets>:<bsize>:<assoc>,<rep>:<wr>:<alloc>:<wr_alloc>,<mshr>:<N>:<merge>,<mq> | none}
-gpgpu_cache:dl1PrefL1                 none # per-shader L1 data cache config  {<nsets>:<bsize>:<assoc>,<rep>:<wr>:<alloc>:<wr_alloc>,<mshr>:<N>:<merge>,<mq> | none}
-gpgpu_cache:dl1PreShared                 none # per-shader L1 data cache config  {<nsets>:<bsize>:<assoc>,<rep>:<wr>:<alloc>:<wr_alloc>,<mshr>:<N>:<merge>,<mq> | none}
-gmem_skip_L1D                          0 # global memory access skip L1D cache (implements -Xptxas -dlcm=cg, default=no skip)
-gpgpu_perfect_mem                      0 # enable perfect memory mode (no cache miss)
-n_regfile_gating_group                    4 # group of lanes that should be read/written together)
-gpgpu_clock_gated_reg_file                    0 # enable clock gated reg file for power calculations
-gpgpu_clock_gated_lanes                    0 # enable clock gated lanes for power calculations
-gpgpu_shader_registers                32768 # Number of registers per shader core. Limits number of concurrent CTAs. (default 8192)
-gpgpu_shader_cta                       8 # Maximum number of concurrent CTAs in shader (default 8)
-gpgpu_num_cta_barriers                   16 # Maximum number of named barriers per CTA (default 16)
-gpgpu_n_clusters                      15 # number of processing clusters
-gpgpu_n_cores_per_cluster                    1 # number of simd cores per cluster
-gpgpu_n_cluster_ejection_buffer_size                    8 # number of packets in ejection buffer
-gpgpu_n_ldst_response_buffer_size                    2 # number of response packets in ld/st unit ejection buffer
-gpgpu_shmem_size                   16384 # Size of shared memory per shader core (default 16kB)
-gpgpu_shmem_size                   49152 # Size of shared memory per shader core (default 16kB)
-gpgpu_shmem_size_PrefL1                16384 # Size of shared memory per shader core (default 16kB)
-gpgpu_shmem_size_PrefShared                16384 # Size of shared memory per shader core (default 16kB)
-gpgpu_shmem_num_banks                   32 # Number of banks in the shared memory in each shader core (default 16)
-gpgpu_shmem_limited_broadcast                    0 # Limit shared memory to do one broadcast per cycle (default on)
-gpgpu_shmem_warp_parts                    1 # Number of portions a warp is divided into for shared memory bank conflict check 
-gpgpu_warpdistro_shader                   -1 # Specify which shader core to collect the warp size distribution from
-gpgpu_warp_issue_shader                    0 # Specify which shader core to collect the warp issue distribution from
-gpgpu_local_mem_map                    1 # Mapping from local memory space address to simulated GPU physical address space (default = enabled)
-gpgpu_num_reg_banks                   16 # Number of register banks (default = 8)
-gpgpu_reg_bank_use_warp_id                    0 # Use warp ID in mapping registers to banks (default = off)
-gpgpu_operand_collector_num_units_sp                    6 # number of collector units (default = 4)
-gpgpu_operand_collector_num_units_sfu                    8 # number of collector units (default = 4)
-gpgpu_operand_collector_num_units_mem                    2 # number of collector units (default = 2)
-gpgpu_operand_collector_num_units_gen                    0 # number of collector units (default = 0)
-gpgpu_operand_collector_num_in_ports_sp                    2 # number of collector unit in ports (default = 1)
-gpgpu_operand_collector_num_in_ports_sfu                    1 # number of collector unit in ports (default = 1)
-gpgpu_operand_collector_num_in_ports_mem                    1 # number of collector unit in ports (default = 1)
-gpgpu_operand_collector_num_in_ports_gen                    0 # number of collector unit in ports (default = 0)
-gpgpu_operand_collector_num_out_ports_sp                    2 # number of collector unit in ports (default = 1)
-gpgpu_operand_collector_num_out_ports_sfu                    1 # number of collector unit in ports (default = 1)
-gpgpu_operand_collector_num_out_ports_mem                    1 # number of collector unit in ports (default = 1)
-gpgpu_operand_collector_num_out_ports_gen                    0 # number of collector unit in ports (default = 0)
-gpgpu_coalesce_arch                   13 # Coalescing arch (default = 13, anything else is off for now)
-gpgpu_num_sched_per_core                    2 # Number of warp schedulers per core
-gpgpu_max_insn_issue_per_warp                    1 # Max number of instructions that can be issued per warp in one cycle by scheduler
-gpgpu_simt_core_sim_order                    1 # Select the simulation order of cores in a cluster (0=Fix, 1=Round-Robin)
-gpgpu_pipeline_widths        2,1,1,2,1,1,2 # Pipeline widths ID_OC_SP,ID_OC_SFU,ID_OC_MEM,OC_EX_SP,OC_EX_SFU,OC_EX_MEM,EX_WB
-gpgpu_num_sp_units                     2 # Number of SP units (default=1)
-gpgpu_num_sfu_units                    1 # Number of SF units (default=1)
-gpgpu_num_mem_units                    1 # Number if ldst units (default=1) WARNING: not hooked up to anything
-gpgpu_scheduler                      gto # Scheduler configuration: < lrr | gto | two_level_active > If two_level_active:<num_active_warps>:<inner_prioritization>:<outer_prioritization>For complete list of prioritization values see shader.h enum scheduler_prioritization_typeDefault: gto
-gpgpu_dram_scheduler                    1 # 0 = fifo, 1 = FR-FCFS (defaul)
-gpgpu_dram_partition_queues              8:8:8:8 # i2$:$2d:d2$:$2i
-l2_ideal                               0 # Use a ideal L2 cache that always hit
-gpgpu_cache:dl2     64:128:8,L:B:m:W:L,A:32:4,4:0,32 # unified banked L2 data cache config  {<nsets>:<bsize>:<assoc>,<rep>:<wr>:<alloc>:<wr_alloc>,<mshr>:<N>:<merge>,<mq>}
-gpgpu_cache:dl2_texture_only                    0 # L2 cache used for texture only
-gpgpu_n_mem                            6 # number of memory modules (e.g. memory controllers) in gpu
-gpgpu_n_sub_partition_per_mchannel                    2 # number of memory subpartition in each memory module
-gpgpu_n_mem_per_ctrlr                    2 # number of memory chips per memory controller
-gpgpu_memlatency_stat                   14 # track and display latency statistics 0x2 enables MC, 0x4 enables queue logs
-gpgpu_frfcfs_dram_sched_queue_size                   16 # 0 = unlimited (default); # entries per chip
-gpgpu_dram_return_queue_size                   84 # 0 = unlimited (default); # entries per chip
-gpgpu_dram_buswidth                    4 # default = 4 bytes (8 bytes per cycle at DDR)
-gpgpu_dram_burst_length                    8 # Burst length of each DRAM request (default = 4 data bus cycle)
-dram_data_command_freq_ratio                    4 # Frequency ratio between DRAM data bus and command bus (default = 2 times, i.e. DDR)
-gpgpu_dram_timing_opt nbk=16:CCD=2:RRD=6:RCD=12:RAS=28:RP=12:RC=40: CL=12:WL=4:CDLR=5:WR=12:nbkgrp=4:CCDL=3:RTPL=2 # DRAM timing parameters = {nbk:tCCD:tRRD:tRCD:tRAS:tRP:tRC:CL:WL:tCDLR:tWR:nbkgrp:tCCDL:tRTPL}
-rop_latency                          120 # ROP queue latency (default 85)
-dram_latency                         100 # DRAM latency (default 30)
-gpgpu_mem_addr_mapping dramid@8;00000000.00000000.00000000.00000000.0000RRRR.RRRRRRRR.BBBCCCCB.CCSSSSSS # mapping memory address to dram model {dramid@<start bit>;<memory address map>}
-gpgpu_mem_addr_test                    0 # run sweep test to check address mapping for aliased address
-gpgpu_mem_address_mask                    1 # 0 = old addressing mask, 1 = new addressing mask, 2 = new add. mask + flipped bank sel and chip sel bits
-gpuwattch_xml_file  gpuwattch_gtx480.xml # GPUWattch XML file
-power_simulation_enabled                    1 # Turn on power simulator (1=On, 0=Off)
-power_per_cycle_dump                    0 # Dump detailed power output each cycle
-power_trace_enabled                    0 # produce a file for the power trace (1=On, 0=Off)
-power_trace_zlevel                     6 # Compression level of the power trace output log (0=no comp, 9=highest)
-steady_power_levels_enabled                    0 # produce a file for the steady power levels (1=On, 0=Off)
-steady_state_definition                  8:4 # allowed deviation:number of samples
-gpgpu_max_cycle                        0 # terminates gpu simulation early (0 = no limit)
-gpgpu_max_insn                         0 # terminates gpu simulation early (0 = no limit)
-gpgpu_max_cta                          0 # terminates gpu simulation early (0 = no limit)
-gpgpu_runtime_stat                   500 # display runtime statistics such as dram utilization {<freq>:<flag>}
-liveness_message_freq                    1 # Minimum number of seconds between simulation liveness messages (0 = always print)
-gpgpu_flush_l1_cache                    0 # Flush L1 cache at the end of each kernel call
-gpgpu_flush_l2_cache                    0 # Flush L2 cache at the end of each kernel call
-gpgpu_deadlock_detect                    1 # Stop the simulation at deadlock (1=on (default), 0=off)
-gpgpu_ptx_instruction_classification                    0 # if enabled will classify ptx instruction types per kernel (Max 255 kernels now)
-gpgpu_ptx_sim_mode                     0 # Select between Performance (default) or Functional simulation (1)
-gpgpu_clock_domains 700.0:700.0:700.0:700.0 # Clock Domain Frequencies in MhZ {<Core Clock>:<ICNT Clock>:<L2 Clock>:<DRAM Clock>}
-gpgpu_max_concurrent_kernel                    8 # maximum kernels that can run concurrently on GPU
-gpgpu_cflog_interval                    0 # Interval between each snapshot in control flow logger
-visualizer_enabled                     0 # Turn on visualizer output (1=On, 0=Off)
-visualizer_outputfile                 NULL # Specifies the output log file for visualizer
-visualizer_zlevel                      6 # Compression level of the visualizer output log (0=no comp, 9=highest)
-trace_enabled                          0 # Turn on traces
-trace_components                    none # comma seperated list of traces to enable. Complete list found in trace_streams.tup. Default none
-trace_sampling_core                    0 # The core which is printed using CORE_DPRINTF. Default 0
-trace_sampling_memory_partition                   -1 # The memory partition which is printed using MEMPART_DPRINTF. Default -1 (i.e. all)
-enable_ptx_file_line_stats                    1 # Turn on PTX source line statistic profiling. (1 = On)
-ptx_line_stats_filename gpgpu_inst_stats.txt # Output file for PTX source line statistics.
-save_embedded_ptx                      0 # saves ptx files embedded in binary as <n>.ptx
-keep                                   0 # keep intermediate files created by GPGPU-Sim when interfacing with external programs
-gpgpu_ptx_save_converted_ptxplus                    0 # Saved converted ptxplus to a file
-ptx_opcode_latency_int         4,13,4,5,145 # Opcode latencies for integers <ADD,MAX,MUL,MAD,DIV>Default 1,1,19,25,145
-ptx_opcode_latency_fp          4,13,4,5,39 # Opcode latencies for single precision floating points <ADD,MAX,MUL,MAD,DIV>Default 1,1,1,1,30
-ptx_opcode_latency_dp         8,19,8,8,330 # Opcode latencies for double precision floating points <ADD,MAX,MUL,MAD,DIV>Default 8,8,8,8,335
-ptx_opcode_initiation_int            1,2,2,1,8 # Opcode initiation intervals for integers <ADD,MAX,MUL,MAD,DIV>Default 1,1,4,4,32
-ptx_opcode_initiation_fp            1,2,1,1,4 # Opcode initiation intervals for single precision floating points <ADD,MAX,MUL,MAD,DIV>Default 1,1,1,1,5
-ptx_opcode_initiation_dp         8,16,8,8,130 # Opcode initiation intervals for double precision floating points <ADD,MAX,MUL,MAD,DIV>Default 8,8,8,8,130
DRAM Timing Options:
nbk                                    16 # number of banks
CCD                                     2 # column to column delay
RRD                                     6 # minimal delay between activation of rows in different banks
RCD                                    12 # row to column delay
RAS                                    28 # time needed to activate row
RP                                     12 # time needed to precharge (deactivate) row
RC                                     40 # row cycle time
CDLR                                    5 # switching from write to read (changes tWTR)
WR                                     12 # last data-in to row precharge
CL                                     12 # CAS latency
WL                                      4 # Write latency
nbkgrp                                  4 # number of bank groups
CCDL                                    3 # column to column delay between accesses to different bank groups
RTPL                                    2 # read to precharge delay between accesses to different bank groups
Total number of memory sub partition = 12
addr_dec_mask[CHIP]  = 0000000000000000 	high:64 low:0
addr_dec_mask[BK]    = 000000000000e100 	high:16 low:8
addr_dec_mask[ROW]   = 000000000fff0000 	high:28 low:16
addr_dec_mask[COL]   = 0000000000001eff 	high:13 low:0
addr_dec_mask[BURST] = 000000000000003f 	high:6 low:0
sub_partition_id_mask = 0000000000000100
GPGPU-Sim uArch: clock freqs: 700000000.000000:700000000.000000:700000000.000000:700000000.000000
GPGPU-Sim uArch: clock periods: 0.00000000142857142857:0.00000000142857142857:0.00000000142857142857:0.00000000142857142857
*** Initializing Memory Statistics ***
GPGPU-Sim uArch: interconnect node map (shaderID+MemID to icntID)
GPGPU-Sim uArch: Memory nodes ID start from index: 15
GPGPU-Sim uArch:    0   1   2   3   4
GPGPU-Sim uArch:    5   6   7   8   9
GPGPU-Sim uArch:   10  11  12  13  14
GPGPU-Sim uArch:   15  16  17  18  19
GPGPU-Sim uArch:   20  21  22  23  24
GPGPU-Sim uArch:   25  26
GPGPU-Sim uArch: interconnect node reverse map (icntID to shaderID+MemID)
GPGPU-Sim uArch: Memory nodes start from ID: 15
GPGPU-Sim uArch:    0   1   2   3   4
GPGPU-Sim uArch:    5   6   7   8   9
GPGPU-Sim uArch:   10  11  12  13  14
GPGPU-Sim uArch:   15  16  17  18  19
GPGPU-Sim uArch:   20  21  22  23  24
GPGPU-Sim uArch:   25  26
20ca3b5bfeb128b0910ff77bfd9979fb  /home/gpgpu-sim/Documents/Dynamic_GPU_Cache_Bypass_Project/benchmarks/test/hotspot-rodinia-3.1
GPGPU-Sim uArch: performance model initialization complete.
GPGPU-Sim PTX: __cudaRegisterFatBinary, fat_cubin_handle = 1, filename=hotspot.cu
self exe links to: /home/gpgpu-sim/Documents/Dynamic_GPU_Cache_Bypass_Project/benchmarks/test/hotspot-rodinia-3.1
Running md5sum using "md5sum /home/gpgpu-sim/Documents/Dynamic_GPU_Cache_Bypass_Project/benchmarks/test/hotspot-rodinia-3.1 "
Running cuobjdump using "$CUDA_INSTALL_PATH/bin/cuobjdump -ptx -elf -sass /home/gpgpu-sim/Documents/Dynamic_GPU_Cache_Bypass_Project/benchmarks/test/hotspot-rodinia-3.1 > _cuobjdump_complete_output_jZkPKL"
Parsing file _cuobjdump_complete_output_jZkPKL
######### cuobjdump parser ########
## Adding new section ELF
Adding arch: sm_30
Adding identifier: hotspot.cu
## Adding new section PTX
Adding ptx filename: _cuobjdump_1.ptx
Adding arch: sm_30
Adding identifier: hotspot.cu
## Adding new section ELF
Adding arch: sm_13
Adding identifier: hotspot.cu
## Adding new section PTX
Adding ptx filename: _cuobjdump_2.ptx
Adding arch: sm_13
Adding identifier: hotspot.cu
## Adding new section ELF
Adding arch: sm_20
Adding identifier: hotspot.cu
## Adding new section PTX
Adding ptx filename: _cuobjdump_3.ptx
Adding arch: sm_20
Adding identifier: hotspot.cu
## Adding new section ELF
Adding arch: sm_10
Adding identifier: hotspot.cu
## Adding new section PTX
Adding ptx filename: _cuobjdump_4.ptx
Adding arch: sm_10
Adding identifier: hotspot.cu
Done parsing!!!
GPGPU-Sim PTX: __cudaRegisterFunction _Z14calculate_tempiPfS_S_iiiiffffff : hostFun 0x0x401390, fat_cubin_handle = 1
GPGPU-Sim PTX: allocating shared region for "__cuda_local_var_17095_39_non_const_temp_on_cuda" from 0x0 to 0x400 (shared memory space)
GPGPU-Sim PTX: allocating shared region for "__cuda_local_var_17096_39_non_const_power_on_cuda" from 0x400 to 0x800 (shared memory space)
GPGPU-Sim PTX: allocating shared region for "__cuda_local_var_17097_39_non_const_temp_t" from 0x800 to 0xc00 (shared memory space)
GPGPU-Sim PTX: Warning %temp1 was declared previous at _1.ptx:350 skipping new declaration
GPGPU-Sim PTX: Warning %temp2 was declared previous at _1.ptx:351 skipping new declaration
GPGPU-Sim PTX: instruction assembly for function '_Z14calculate_tempiPfS_S_iiiiffffff'...   done.
GPGPU-Sim PTX: finding reconvergence points for '_Z14calculate_tempiPfS_S_iiiiffffff'...
GPGPU-Sim PTX: Finding dominators for '_Z14calculate_tempiPfS_S_iiiiffffff'...
GPGPU-Sim PTX: Finding immediate dominators for '_Z14calculate_tempiPfS_S_iiiiffffff'...
GPGPU-Sim PTX: Finding postdominators for '_Z14calculate_tempiPfS_S_iiiiffffff'...
GPGPU-Sim PTX: Finding immediate postdominators for '_Z14calculate_tempiPfS_S_iiiiffffff'...
GPGPU-Sim PTX: pre-decoding instructions for '_Z14calculate_tempiPfS_S_iiiiffffff'...
GPGPU-Sim PTX: reconvergence points for _Z14calculate_tempiPfS_S_iiiiffffff...
GPGPU-Sim PTX:  1 (potential) branch divergence @  PC=0x110 (_1.ptx:99) @!%p3 bra BB0_3;
GPGPU-Sim PTX:    immediate post dominator      @  PC=0x238 (_1.ptx:155) bar.sync 0;
GPGPU-Sim PTX:  2 (potential) branch divergence @  PC=0x188 (_1.ptx:123) @!%p6 bra BB0_3;
GPGPU-Sim PTX:    immediate post dominator      @  PC=0x238 (_1.ptx:155) bar.sync 0;
GPGPU-Sim PTX:  3 (potential) branch divergence @  PC=0x3e0 (_1.ptx:223) @%p9 bra BB0_5;
GPGPU-Sim PTX:    immediate post dominator      @  PC=0x760 (_1.ptx:381) cvt.s16.s8 %temp1, %rc7;
GPGPU-Sim PTX:  4 (potential) branch divergence @  PC=0x3e8 (_1.ptx:224) bra.uni BB0_13;
GPGPU-Sim PTX:    immediate post dominator      @  PC=0x760 (_1.ptx:381) cvt.s16.s8 %temp1, %rc7;
GPGPU-Sim PTX:  5 (potential) branch divergence @  PC=0x420 (_1.ptx:236) @!%p12 bra BB0_8;
GPGPU-Sim PTX:    immediate post dominator      @  PC=0x6b0 (_1.ptx:341) bar.sync 0;
GPGPU-Sim PTX:  6 (potential) branch divergence @  PC=0x578 (_1.ptx:292) @%p25 bra BB0_8;
GPGPU-Sim PTX:    immediate post dominator      @  PC=0x6b0 (_1.ptx:341) bar.sync 0;
GPGPU-Sim PTX:  7 (potential) branch divergence @  PC=0x6a0 (_1.ptx:334) bra.uni BB0_9;
GPGPU-Sim PTX:    immediate post dominator      @  PC=0x6b0 (_1.ptx:341) bar.sync 0;
GPGPU-Sim PTX:  8 (potential) branch divergence @  PC=0x6d0 (_1.ptx:346) @%p26 bra BB0_13;
GPGPU-Sim PTX:    immediate post dominator      @  PC=0x760 (_1.ptx:381) cvt.s16.s8 %temp1, %rc7;
GPGPU-Sim PTX:  9 (potential) branch divergence @  PC=0x6f8 (_1.ptx:357) @%p27 bra BB0_12;
GPGPU-Sim PTX:    immediate post dominator      @  PC=0x748 (_1.ptx:372) bar.sync 0;
GPGPU-Sim PTX: 10 (potential) branch divergence @  PC=0x758 (_1.ptx:374) bra.uni BB0_4;
GPGPU-Sim PTX:    immediate post dominator      @  PC=0x3c8 (_1.ptx:219) mov.u32 %r11, %r159;
GPGPU-Sim PTX: 11 (potential) branch divergence @  PC=0x780 (_1.ptx:386) @%p28 bra BB0_15;
GPGPU-Sim PTX:    immediate post dominator      @  PC=0x868 (_1.ptx:432) ret;
GPGPU-Sim PTX: ... end of reconvergence points for _Z14calculate_tempiPfS_S_iiiiffffff
GPGPU-Sim PTX: ... done pre-decoding instructions for '_Z14calculate_tempiPfS_S_iiiiffffff'.
GPGPU-Sim PTX: finished parsing EMBEDDED .ptx file _1.ptx
Adding _cuobjdump_3.ptx with cubin handle 1
GPGPU-Sim PTX: extracting embedded .ptx to temporary file "_ptx_OihyvA"
Running: cat _ptx_OihyvA | sed 's/.version 1.5/.version 1.4/' | sed 's/, texmode_independent//' | sed 's/\(\.extern \.const\[1\] .b8 \w\+\)\[\]/\1\[1\]/' | sed 's/const\[.\]/const\[0\]/g' > _ptx2_RAGtgp
GPGPU-Sim PTX: generating ptxinfo using "$CUDA_INSTALL_PATH/bin/ptxas --gpu-name=sm_20 -v _ptx2_RAGtgp --output-file  /dev/null 2> _ptx_OihyvAinfo"
GPGPU-Sim PTX: Kernel '_Z14calculate_tempiPfS_S_iiiiffffff' : regs=30, lmem=0, smem=3072, cmem=120
GPGPU-Sim PTX: removing ptxinfo using "rm -f _ptx_OihyvA _ptx2_RAGtgp _ptx_OihyvAinfo"
GPGPU-Sim PTX: loading globals with explicit initializers... 
GPGPU-Sim PTX: finished loading globals (0 bytes total).
GPGPU-Sim PTX: loading constants with explicit initializers...  done.
WG size of kernel = 16 X 16
pyramidHeight: 2
gridSize: [512, 512]
border:[2, 2]
blockGrid:[43, 43]
targetBlock:[12, 12]
Start computing the transient temperature

GPGPU-Sim PTX: cudaLaunch for 0x0x401390 (mode=performance simulation) on stream 0
GPGPU-Sim PTX: pushing kernel '_Z14calculate_tempiPfS_S_iiiiffffff' to stream 0, gridDim= (43,43,1) blockDim = (16,16,1) 
kernel '_Z14calculate_tempiPfS_S_iiiiffffff' transfer to GPU hardware scheduler
GPGPU-Sim uArch: Shader 1 bind to kernel 1 '_Z14calculate_tempiPfS_S_iiiiffffff'
GPGPU-Sim uArch: CTA/core = 4, limited by: regs
GPGPU-Sim uArch: core:  1, cta: 0 initialized @(1,0)
GPGPU-Sim uArch: Shader 2 bind to kernel 1 '_Z14calculate_tempiPfS_S_iiiiffffff'
GPGPU-Sim uArch: core:  2, cta: 0 initialized @(1,0)
GPGPU-Sim uArch: Shader 3 bind to kernel 1 '_Z14calculate_tempiPfS_S_iiiiffffff'
GPGPU-Sim uArch: core:  3, cta: 0 initialized @(1,0)
GPGPU-Sim uArch: Shader 4 bind to kernel 1 '_Z14calculate_tempiPfS_S_iiiiffffff'
GPGPU-Sim uArch: core:  4, cta: 0 initialized @(1,0)
GPGPU-Sim uArch: Shader 5 bind to kernel 1 '_Z14calculate_tempiPfS_S_iiiiffffff'
GPGPU-Sim uArch: core:  5, cta: 0 initialized @(1,0)
GPGPU-Sim uArch: Shader 6 bind to kernel 1 '_Z14calculate_tempiPfS_S_iiiiffffff'
GPGPU-Sim uArch: core:  6, cta: 0 initialized @(1,0)
GPGPU-Sim uArch: Shader 7 bind to kernel 1 '_Z14calculate_tempiPfS_S_iiiiffffff'
GPGPU-Sim uArch: core:  7, cta: 0 initialized @(1,0)
GPGPU-Sim uArch: Shader 8 bind to kernel 1 '_Z14calculate_tempiPfS_S_iiiiffffff'
GPGPU-Sim uArch: core:  8, cta: 0 initialized @(1,0)
GPGPU-Sim uArch: Shader 9 bind to kernel 1 '_Z14calculate_tempiPfS_S_iiiiffffff'
GPGPU-Sim uArch: core:  9, cta: 0 initialized @(1,0)
GPGPU-Sim uArch: Shader 10 bind to kernel 1 '_Z14calculate_tempiPfS_S_iiiiffffff'
GPGPU-Sim uArch: core: 10, cta: 0 initialized @(1,0)
GPGPU-Sim uArch: Shader 11 bind to kernel 1 '_Z14calculate_tempiPfS_S_iiiiffffff'
GPGPU-Sim uArch: core: 11, cta: 0 initialized @(1,0)
GPGPU-Sim uArch: Shader 12 bind to kernel 1 '_Z14calculate_tempiPfS_S_iiiiffffff'
GPGPU-Sim uArch: core: 12, cta: 0 initialized @(1,0)
GPGPU-Sim uArch: Shader 13 bind to kernel 1 '_Z14calculate_tempiPfS_S_iiiiffffff'
GPGPU-Sim uArch: core: 13, cta: 0 initialized @(1,0)
GPGPU-Sim uArch: Shader 14 bind to kernel 1 '_Z14calculate_tempiPfS_S_iiiiffffff'
GPGPU-Sim uArch: core: 14, cta: 0 initialized @(1,0)
GPGPU-Sim uArch: Shader 0 bind to kernel 1 '_Z14calculate_tempiPfS_S_iiiiffffff'
GPGPU-Sim uArch: core:  0, cta: 0 initialized @(1,0)
GPGPU-Sim uArch: core:  1, cta: 1 initialized @(2,0)
GPGPU-Sim uArch: core:  2, cta: 1 initialized @(2,0)
GPGPU-Sim uArch: core:  3, cta: 1 initialized @(2,0)
GPGPU-Sim uArch: core:  4, cta: 1 initialized @(2,0)
GPGPU-Sim uArch: core:  5, cta: 1 initialized @(2,0)
GPGPU-Sim uArch: core:  6, cta: 1 initialized @(2,0)
GPGPU-Sim uArch: core:  7, cta: 1 initialized @(2,0)
GPGPU-Sim uArch: core:  8, cta: 1 initialized @(2,0)
GPGPU-Sim uArch: core:  9, cta: 1 initialized @(2,0)
GPGPU-Sim uArch: core: 10, cta: 1 initialized @(2,0)
GPGPU-Sim uArch: core: 11, cta: 1 initialized @(2,0)
GPGPU-Sim uArch: core: 12, cta: 1 initialized @(2,0)
GPGPU-Sim uArch: core: 13, cta: 1 initialized @(2,0)
GPGPU-Sim uArch: core: 14, cta: 1 initialized @(2,0)
GPGPU-Sim uArch: core:  0, cta: 1 initialized @(2,0)
GPGPU-Sim uArch: core:  1, cta: 2 initialized @(3,0)
GPGPU-Sim uArch: core:  2, cta: 2 initialized @(3,0)
GPGPU-Sim uArch: core:  3, cta: 2 initialized @(3,0)
GPGPU-Sim uArch: core:  4, cta: 2 initialized @(3,0)
GPGPU-Sim uArch: core:  5, cta: 2 initialized @(3,0)
GPGPU-Sim uArch: core:  6, cta: 2 initialized @(3,0)
GPGPU-Sim uArch: core:  7, cta: 2 initialized @(3,0)
GPGPU-Sim uArch: core:  8, cta: 2 initialized @(3,0)
GPGPU-Sim uArch: core:  9, cta: 2 initialized @(3,0)
GPGPU-Sim uArch: core: 10, cta: 2 initialized @(3,0)
GPGPU-Sim uArch: core: 11, cta: 2 initialized @(3,0)
GPGPU-Sim uArch: core: 12, cta: 2 initialized @(3,0)
GPGPU-Sim uArch: core: 13, cta: 2 initialized @(3,0)
GPGPU-Sim uArch: core: 14, cta: 2 initialized @(3,0)
GPGPU-Sim uArch: core:  0, cta: 2 initialized @(3,0)
GPGPU-Sim uArch: core:  1, cta: 3 initialized @(4,0)
GPGPU-Sim uArch: core:  2, cta: 3 initialized @(4,0)
GPGPU-Sim uArch: core:  3, cta: 3 initialized @(4,0)
GPGPU-Sim uArch: core:  4, cta: 3 initialized @(4,0)
GPGPU-Sim uArch: core:  5, cta: 3 initialized @(4,0)
GPGPU-Sim uArch: core:  6, cta: 3 initialized @(4,0)
GPGPU-Sim uArch: core:  7, cta: 3 initialized @(4,0)
GPGPU-Sim uArch: core:  8, cta: 3 initialized @(4,0)
GPGPU-Sim uArch: core:  9, cta: 3 initialized @(4,0)
GPGPU-Sim uArch: core: 10, cta: 3 initialized @(4,0)
GPGPU-Sim uArch: core: 11, cta: 3 initialized @(4,0)
GPGPU-Sim uArch: core: 12, cta: 3 initialized @(4,0)
GPGPU-Sim uArch: core: 13, cta: 3 initialized @(4,0)
GPGPU-Sim uArch: core: 14, cta: 3 initialized @(4,0)
GPGPU-Sim uArch: core:  0, cta: 3 initialized @(4,0)
GPGPU-Sim uArch: cycles simulated: 500  inst.: 0 (ipc= 0.0) sim_rate=0 (inst/sec) elapsed = 0:0:00:02 / Sun Jan 27 19:57:36 2019
GPGPU-Sim PTX: 100000 instructions simulated : ctaid=(40,0,0) tid=(15,13,0)
GPGPU-Sim PTX: 200000 instructions simulated : ctaid=(10,1,0) tid=(15,15,0)
GPGPU-Sim uArch: cycles simulated: 1000  inst.: 221216 (ipc=221.2) sim_rate=55304 (inst/sec) elapsed = 0:0:00:04 / Sun Jan 27 19:57:38 2019
GPGPU-Sim PTX: 300000 instructions simulated : ctaid=(1,0,0) tid=(15,11,0)
GPGPU-Sim PTX: 400000 instructions simulated : ctaid=(31,0,0) tid=(15,5,0)
GPGPU-Sim uArch: cycles simulated: 1500  inst.: 462784 (ipc=308.5) sim_rate=92556 (inst/sec) elapsed = 0:0:00:05 / Sun Jan 27 19:57:39 2019
GPGPU-Sim PTX: 500000 instructions simulated : ctaid=(19,0,0) tid=(15,9,0)
GPGPU-Sim PTX: 600000 instructions simulated : ctaid=(12,1,0) tid=(15,9,0)
GPGPU-Sim PTX: 700000 instructions simulated : ctaid=(35,0,0) tid=(7,14,0)
ldst_unit::memory_cycle() - mf=0x7f07e120c0d0
TAG STORE PROBE
	addr=2147490176
	block_addr=2147490176
	tag=2147490176
	idx is LFU
	idx=159 T_MISS
	tag_store->allocate() - tag_index=159
ldst_unit::memory_cycle() - mf=0x7f07e120c0d0 BYPASS
ldst_unit::memory_cycle() - mf=0x7f07e121db20
TAG STORE PROBE
	addr=2147490112
	block_addr=2147490048
	tag=2147490048
	idx is LFU
	idx=151 T_MISS
	tag_store->allocate() - tag_index=151
ldst_unit::memory_cycle() - mf=0x7f07e121db20 BYPASS
ldst_unit::memory_cycle() - mf=0x7f07e1228de0
TAG STORE PROBE
	addr=2147497984
	block_addr=2147497984
	tag=2147497984
	idx is LFU
	idx=143 T_MISS
	tag_store->allocate() - tag_index=143
ldst_unit::memory_cycle() - mf=0x7f07e1228de0 BYPASS
ldst_unit::memory_cycle() - mf=0x7f07e122e950
TAG STORE PROBE
	addr=2147488128
	block_addr=2147488128
	tag=2147488128
	idx is LFU
	idx=31 T_MISS
	tag_store->allocate() - tag_index=31
ldst_unit::memory_cycle() - mf=0x7f07e122e950 BYPASS
ldst_unit::memory_cycle() - mf=0x7f07e1238c30
TAG STORE PROBE
	addr=2147495936
	block_addr=2147495936
	tag=2147495936
	idx is LFU
	idx=15 T_MISS
	tag_store->allocate() - tag_index=15
ldst_unit::memory_cycle() - mf=0x7f07e1238c30 BYPASS
ldst_unit::memory_cycle() - mf=0x7f07e123ece0
TAG STORE PROBE
	addr=2147488064
	block_addr=2147488000
	tag=2147488000
	idx is LFU
	idx=23 T_MISS
	tag_store->allocate() - tag_index=23
ldst_unit::memory_cycle() - mf=0x7f07e123ece0 BYPASS
ldst_unit::memory_cycle() - mf=0x7f07e124d450
TAG STORE PROBE
	addr=2147506560
	block_addr=2147506560
	tag=2147506560
	idx is LFU
	idx=143 T_MISS
	tag_store->allocate() - tag_index=143
ldst_unit::memory_cycle() - mf=0x7f07e124d450 BYPASS
ldst_unit::memory_cycle() - mf=0x7f07e125ae10
TAG STORE PROBE
	addr=2147506496
	block_addr=2147506432
	tag=2147506432
	idx is LFU
	idx=135 T_MISS
	tag_store->allocate() - tag_index=135
ldst_unit::memory_cycle() - mf=0x7f07e125ae10 BYPASS
ldst_unit::memory_cycle() - mf=0x7f07e126fff0
TAG STORE PROBE
	addr=2147504512
	block_addr=2147504512
	tag=2147504512
	idx is LFU
	idx=15 T_MISS
	tag_store->allocate() - tag_index=15
ldst_unit::memory_cycle() - mf=0x7f07e126fff0 BYPASS
ldst_unit::memory_cycle() - mf=0x7f07e127dab0
TAG STORE PROBE
	addr=2147504448
	block_addr=2147504384
	tag=2147504384
	idx is LFU
	idx=7 T_MISS
	tag_store->allocate() - tag_index=7
ldst_unit::memory_cycle() - mf=0x7f07e127dab0 BYPASS
ldst_unit::memory_cycle() - mf=0x7f07e1286a30
TAG STORE PROBE
	addr=2147490560
	block_addr=2147490560
	tag=2147490560
	idx is LFU
	idx=183 T_MISS
	tag_store->allocate() - tag_index=183
ldst_unit::memory_cycle() - mf=0x7f07e1286a30 BYPASS
ldst_unit::memory_cycle() - mf=0x7f07e1289a60
TAG STORE PROBE
	addr=2147498112
	block_addr=2147498112
	tag=2147498112
	idx is LFU
	idx=135 T_MISS
	tag_store->allocate() - tag_index=135
ldst_unit::memory_cycle() - mf=0x7f07e1289a60 BYPASS
ldst_unit::memory_cycle() - mf=0x7f07e128f040
TAG STORE PROBE
	addr=2147498368
	block_addr=2147498368
	tag=2147498368
	idx is LFU
	idx=150 T_MISS
	tag_store->allocate() - tag_index=150
ldst_unit::memory_cycle() - mf=0x7f07e128f040 BYPASS
ldst_unit::memory_cycle() - mf=0x7f07e12971c0
TAG STORE PROBE
	addr=2147490528
	block_addr=2147490432
	tag=2147490432
	idx is LFU
	idx=175 T_MISS
	tag_store->allocate() - tag_index=175
ldst_unit::memory_cycle() - mf=0x7f07e12971c0 BYPASS
ldst_unit::memory_cycle() - mf=0x7f07e1299840
TAG STORE PROBE
	addr=2147496064
	block_addr=2147496064
	tag=2147496064
	idx is LFU
	idx=7 T_MISS
	tag_store->allocate() - tag_index=7
ldst_unit::memory_cycle() - mf=0x7f07e1299840 BYPASS
ldst_unit::memory_cycle() - mf=0x7f07e129e650
TAG STORE PROBE
	addr=2147498304
	block_addr=2147498240
	tag=2147498240
	idx is LFU
	idx=158 T_MISS
	tag_store->allocate() - tag_index=158
ldst_unit::memory_cycle() - mf=0x7f07e129e650 BYPASS
ldst_unit::memory_cycle() - mf=0x7f07e12a7250
TAG STORE PROBE
	addr=2147488512
	block_addr=2147488512
	tag=2147488512
	idx is LFU
	idx=55 T_MISS
	tag_store->allocate() - tag_index=55
ldst_unit::memory_cycle() - mf=0x7f07e12a7250 BYPASS
ldst_unit::memory_cycle() - mf=0x7f07e12ae230
TAG STORE PROBE
	addr=2147496320
	block_addr=2147496320
	tag=2147496320
	idx is LFU
	idx=22 T_MISS
	tag_store->allocate() - tag_index=22
ldst_unit::memory_cycle() - mf=0x7f07e12ae230 BYPASS
ldst_unit::memory_cycle() - mf=0x7f07e12b64b0
TAG STORE PROBE
	addr=2147488480
	block_addr=2147488384
	tag=2147488384
	idx is LFU
	idx=47 T_MISS
	tag_store->allocate() - tag_index=47
ldst_unit::memory_cycle() - mf=0x7f07e12b64b0 BYPASS
ldst_unit::memory_cycle() - mf=0x7f07e12be810
TAG STORE PROBE
	addr=2147496256
	block_addr=2147496192
	tag=2147496192
	idx is LFU
	idx=30 T_MISS
	tag_store->allocate() - tag_index=30
ldst_unit::memory_cycle() - mf=0x7f07e12be810 BYPASS
ldst_unit::memory_cycle() - mf=0x7f07e12cea60
TAG STORE PROBE
	addr=2147490816
	block_addr=2147490816
	tag=2147490816
	idx is LFU
	idx=199 T_MISS
	tag_store->allocate() - tag_index=199
ldst_unit::memory_cycle() - mf=0x7f07e12cea60 BYPASS
ldst_unit::memory_cycle() - mf=0x7f07e12de100
TAG STORE PROBE
	addr=2147488768
	block_addr=2147488768
	tag=2147488768
	idx is LFU
	idx=71 T_MISS
	tag_store->allocate() - tag_index=71
ldst_unit::memory_cycle() - mf=0x7f07e12de100 BYPASS
ldst_unit::memory_cycle() - mf=0x7f07e12e7de0
TAG STORE PROBE
	addr=2147485696
	block_addr=2147485696
	tag=2147485696
	idx is LFU
	idx=135 T_MISS
	tag_store->allocate() - tag_index=135
ldst_unit::memory_cycle() - mf=0x7f07e12e7de0 BYPASS
ldst_unit::memory_cycle() - mf=0x7f07e12efce0
TAG STORE PROBE
	addr=2147499008
	block_addr=2147499008
	tag=2147499008
	idx is LFU
	idx=207 T_MISS
	tag_store->allocate() - tag_index=207
ldst_unit::memory_cycle() - mf=0x7f07e12efce0 BYPASS
ldst_unit::memory_cycle() - mf=0x7f07e12fa3d0
TAG STORE PROBE
	addr=2147483648
	block_addr=2147483648
	tag=2147483648
	idx is LFU
	idx=7 T_MISS
	tag_store->allocate() - tag_index=7
ldst_unit::memory_cycle() - mf=0x7f07e12fa3d0 BYPASS
ldst_unit::memory_cycle() - mf=0x7f07e1300980
TAG STORE PROBE
	addr=2147496960
	block_addr=2147496960
	tag=2147496960
	idx is LFU
	idx=79 T_MISS
	tag_store->allocate() - tag_index=79
ldst_unit::memory_cycle() - mf=0x7f07e1300980 BYPASS
ldst_unit::memory_cycle() - mf=0x7f07e13086c0
TAG STORE PROBE
	addr=2147489792
	block_addr=2147489792
	tag=2147489792
	idx is LFU
	idx=134 T_MISS
	tag_store->allocate() - tag_index=134
ldst_unit::memory_cycle() - mf=0x7f07e13086c0 BYPASS
ldst_unit::memory_cycle() - mf=0x7f07e13186f0
TAG STORE PROBE
	addr=2147487744
	block_addr=2147487744
	tag=2147487744
	idx is LFU
	idx=6 T_MISS
	tag_store->allocate() - tag_index=6
ldst_unit::memory_cycle() - mf=0x7f07e13186f0 BYPASS
ldst_unit::memory_cycle() - mf=0x7f07e13297b0
TAG STORE PROBE
	addr=2147489920
	block_addr=2147489920
	tag=2147489920
	idx is LFU
	idx=143 T_MISS
	tag_store->allocate() - tag_index=143
ldst_unit::memory_cycle() - mf=0x7f07e13297b0 BYPASS
ldst_unit::memory_cycle() - mf=0x7f07e133b790
TAG STORE PROBE
	addr=2147487872
	block_addr=2147487872
	tag=2147487872
	idx is LFU
	idx=15 T_MISS
	tag_store->allocate() - tag_index=15
ldst_unit::memory_cycle() - mf=0x7f07e133b790 BYPASS
ldst_unit::memory_cycle() - mf=0x7f07e134abc0
TAG STORE PROBE
	addr=2147493888
	block_addr=2147493888
	tag=2147493888
	idx is LFU
	idx=142 T_MISS
	tag_store->allocate() - tag_index=142
ldst_unit::memory_cycle() - mf=0x7f07e134abc0 BYPASS
ldst_unit::memory_cycle() - mf=0x7f07e134dd60
TAG STORE PROBE
	addr=2147506304
	block_addr=2147506304
	tag=2147506304
	idx is LFU
	idx=159 T_MISS
	tag_store->allocate() - tag_index=159
ldst_unit::memory_cycle() - mf=0x7f07e134dd60 BYPASS
ldst_unit::memory_cycle() - mf=0x7f07e135c3d0
TAG STORE PROBE
	addr=2147491840
	block_addr=2147491840
	tag=2147491840
	idx is LFU
	idx=14 T_MISS
	tag_store->allocate() - tag_index=14
ldst_unit::memory_cycle() - mf=0x7f07e135c3d0 BYPASS
ldst_unit::memory_cycle() - mf=0x7f07e135ec70
TAG STORE PROBE
	addr=2147504256
	block_addr=2147504256
	tag=2147504256
	idx is LFU
	idx=31 T_MISS
	tag_store->allocate() - tag_index=31
ldst_unit::memory_cycle() - mf=0x7f07e135ec70 BYPASS
ldst_unit::memory_cycle() - mf=0x7f07e13634f0
TAG STORE PROBE
	addr=2147494272
	block_addr=2147494272
	tag=2147494272
	idx is LFU
	idx=149 T_MISS
	tag_store->allocate() - tag_index=149
ldst_unit::memory_cycle() - mf=0x7f07e13634f0 BYPASS
ldst_unit::memory_cycle() - mf=0x7f07e13710c0
TAG STORE PROBE
	addr=2147494208
	block_addr=2147494144
	tag=2147494144
	idx is LFU
	idx=157 T_MISS
	tag_store->allocate() - tag_index=157
ldst_unit::memory_cycle() - mf=0x7f07e13710c0 BYPASS
ldst_unit::memory_cycle() - mf=0x7f07e137a320
TAG STORE PROBE
	addr=2147506176
	block_addr=2147506176
	tag=2147506176
	idx is LFU
	idx=151 T_MISS
	tag_store->allocate() - tag_index=151
ldst_unit::memory_cycle() - mf=0x7f07e137a320 BYPASS
ldst_unit::memory_cycle() - mf=0x7f07e1381140
TAG STORE PROBE
	addr=2147492224
	block_addr=2147492224
	tag=2147492224
	idx is LFU
	idx=21 T_MISS
	tag_store->allocate() - tag_index=21
ldst_unit::memory_cycle() - mf=0x7f07e1381140 BYPASS
ldst_unit::memory_cycle() - mf=0x7f07e1389ac0
TAG STORE PROBE
	addr=2147504128
	block_addr=2147504128
	tag=2147504128
	idx is LFU
	idx=23 T_MISS
	tag_store->allocate() - tag_index=23
ldst_unit::memory_cycle() - mf=0x7f07e1389ac0 BYPASS
ldst_unit::memory_cycle() - mf=0x7f07e1390df0
TAG STORE PROBE
	addr=2147492160
	block_addr=2147492096
	tag=2147492096
	idx is LFU
	idx=29 T_MISS
	tag_store->allocate() - tag_index=29
ldst_unit::memory_cycle() - mf=0x7f07e1390df0 BYPASS
ldst_unit::memory_cycle() - mf=0x7f07f3b056d0
TAG STORE PROBE
	addr=2147510656
	block_addr=2147510656
	tag=2147510656
	idx is LFU
	idx=134 T_MISS
	tag_store->allocate() - tag_index=134
ldst_unit::memory_cycle() - mf=0x7f07f3b056d0 BYPASS
ldst_unit::memory_cycle() - mf=0x7f07e13b1060
TAG STORE PROBE
	addr=2147510272
	block_addr=2147510272
	tag=2147510272
	idx is LFU
	idx=159 T_MISS
	tag_store->allocate() - tag_index=159
ldst_unit::memory_cycle() - mf=0x7f07e13b1060 BYPASS
ldst_unit::memory_cycle() - mf=0x7f07e13b8680
TAG STORE PROBE
	addr=2147510592
	block_addr=2147510528
	tag=2147510528
	idx is LFU
	idx=142 T_MISS
	tag_store->allocate() - tag_index=142
ldst_unit::memory_cycle() - mf=0x7f07e13b8680 BYPASS
ldst_unit::memory_cycle() - mf=0x7f07e13bae00
TAG STORE PROBE
	addr=2147490176
	block_addr=2147490176
	tag=2147490176
	idx is LFU
	idx=159 T_MISS
	tag_store->allocate() - tag_index=159
ldst_unit::memory_cycle() - mf=0x7f07e13bae00 BYPASS
ldst_unit::memory_cycle() - mf=0x7f07e13c4a90
TAG STORE PROBE
	addr=2147508224
	block_addr=2147508224
	tag=2147508224
	idx is LFU
	idx=31 T_MISS
	tag_store->allocate() - tag_index=31
ldst_unit::memory_cycle() - mf=0x7f07e13c4a90 BYPASS
ldst_unit::memory_cycle() - mf=0x7f07e13ca300
TAG STORE PROBE
	addr=2147508608
	block_addr=2147508608
	tag=2147508608
	idx is LFU
	idx=6 T_MISS
	tag_store->allocate() - tag_index=6
ldst_unit::memory_cycle() - mf=0x7f07e13ca300 BYPASS
ldst_unit::memory_cycle() - mf=0x7f07e13cbde0
TAG STORE PROBE
	addr=2147490144
	block_addr=2147490048
	tag=2147490048
	idx is LFU
	idx=151 T_MISS
	tag_store->allocate() - tag_index=151
ldst_unit::memory_cycle() - mf=0x7f07e13cbde0 BYPASS
ldst_unit::memory_cycle() - mf=0x7f07e13d30c0
TAG STORE PROBE
	addr=2147502080
	block_addr=2147502080
	tag=2147502080
	idx is LFU
	idx=150 T_MISS
	tag_store->allocate() - tag_index=150
ldst_unit::memory_cycle() - mf=0x7f07e13d30c0 BYPASS
ldst_unit::memory_cycle() - mf=0x7f07f3d1f570
TAG STORE PROBE
	addr=2147508544
	block_addr=2147508480
	tag=2147508480
	idx is LFU
	idx=14 T_MISS
	tag_store->allocate() - tag_index=14
ldst_unit::memory_cycle() - mf=0x7f07f3d1f570 BYPASS
ldst_unit::memory_cycle() - mf=0x7f07e13dead0
TAG STORE PROBE
	addr=2147488128
	block_addr=2147488128
	tag=2147488128
	idx is LFU
	idx=31 T_MISS
	tag_store->allocate() - tag_index=31
ldst_unit::memory_cycle() - mf=0x7f07e13dead0 BYPASS
ldst_unit::memory_cycle() - mf=0x7f07e13e6400
TAG STORE PROBE
	addr=2147489792
	block_addr=2147489792
	tag=2147489792
	idx is LFU
	idx=135 T_MISS
	tag_store->allocate() - tag_index=135
ldst_unit::memory_cycle() - mf=0x7f07e13e6400 BYPASS
ldst_unit::memory_cycle() - mf=0x7f07e13e7ce0
TAG STORE PROBE
	addr=2147500032
	block_addr=2147500032
	tag=2147500032
	idx is LFU
	idx=22 T_MISS
	tag_store->allocate() - tag_index=22
ldst_unit::memory_cycle() - mf=0x7f07e13e7ce0 BYPASS
ldst_unit::memory_cycle() - mf=0x7f07e13ee550
TAG STORE PROBE
	addr=2147486080
	block_addr=2147486080
	tag=2147486080
	idx is LFU
	idx=156 T_MISS
	tag_store->allocate() - tag_index=156
ldst_unit::memory_cycle() - mf=0x7f07e13ee550 BYPASS
ldst_unit::memory_cycle() - mf=0x7f07e13f0170
TAG STORE PROBE
	addr=2147488096
	block_addr=2147488000
	tag=2147488000
	idx is LFU
	idx=23 T_MISS
	tag_store->allocate() - tag_index=23
ldst_unit::memory_cycle() - mf=0x7f07e13f0170 BYPASS
ldst_unit::memory_cycle() - mf=0x7f07e13f7410
TAG STORE PROBE
	addr=2147487744
	block_addr=2147487744
	tag=2147487744
	idx is LFU
	idx=7 T_MISS
	tag_store->allocate() - tag_index=7
ldst_unit::memory_cycle() - mf=0x7f07e13f7410 BYPASS
ldst_unit::memory_cycle() - mf=0x7f07e13f9a80
TAG STORE PROBE
	addr=2147498752
	block_addr=2147498752
	tag=2147498752
	idx is LFU
	idx=191 T_MISS
	tag_store->allocate() - tag_index=191
ldst_unit::memory_cycle() - mf=0x7f07e13f9a80 BYPASS
ldst_unit::memory_cycle() - mf=0x7f07e13fb760
TAG STORE PROBE
	addr=2147489920
	block_addr=2147489920
	tag=2147489920
	idx is LFU
	idx=143 T_MISS
	tag_store->allocate() - tag_index=143
ldst_unit::memory_cycle() - mf=0x7f07e13fb760 BYPASS
ldst_unit::memory_cycle() - mf=0x7f07e1401f40
TAG STORE PROBE
	addr=2147486016
	block_addr=2147485952
	tag=2147485952
	idx is LFU
	idx=148 T_MISS
	tag_store->allocate() - tag_index=148
ldst_unit::memory_cycle() - mf=0x7f07e1401f40 BYPASS
ldst_unit::memory_cycle() - mf=0x7f07e1409d00
TAG STORE PROBE
	addr=2147485696
	block_addr=2147485696
	tag=2147485696
	idx is LFU
	idx=134 T_MISS
	tag_store->allocate() - tag_index=134
ldst_unit::memory_cycle() - mf=0x7f07e1409d00 BYPASS
ldst_unit::memory_cycle() - mf=0x7f07e140b6a0
TAG STORE PROBE
	addr=2147498720
	block_addr=2147498624
	tag=2147498624
	idx is LFU
	idx=167 T_MISS
	tag_store->allocate() - tag_index=167
ldst_unit::memory_cycle() - mf=0x7f07e140b6a0 BYPASS
ldst_unit::memory_cycle() - mf=0x7f07e140d120
TAG STORE PROBE
	addr=2147489856
	block_addr=2147489792
	tag=2147489792
	idx is LFU
	idx=135 T_MISS
	tag_store->allocate() - tag_index=135
ldst_unit::memory_cycle() - mf=0x7f07e140d120 BYPASS
ldst_unit::memory_cycle() - mf=0x7f07e14123d0
TAG STORE PROBE
	addr=2147484032
	block_addr=2147484032
	tag=2147484032
	idx is LFU
	idx=28 T_MISS
	tag_store->allocate() - tag_index=28
ldst_unit::memory_cycle() - mf=0x7f07e14123d0 BYPASS
ldst_unit::memory_cycle() - mf=0x7f07e141ae00
TAG STORE PROBE
	addr=2147483648
	block_addr=2147483648
	tag=2147483648
	idx is LFU
	idx=6 T_MISS
	tag_store->allocate() - tag_index=6
ldst_unit::memory_cycle() - mf=0x7f07e141ae00 BYPASS
ldst_unit::memory_cycle() - mf=0x7f07e141d360
TAG STORE PROBE
	addr=2147496704
	block_addr=2147496704
	tag=2147496704
	idx is LFU
	idx=63 T_MISS
	tag_store->allocate() - tag_index=63
ldst_unit::memory_cycle() - mf=0x7f07e141d360 BYPASS
ldst_unit::memory_cycle() - mf=0x7f07f3887eb0
TAG STORE PROBE
	addr=2147487872
	block_addr=2147487872
	tag=2147487872
	idx is LFU
	idx=15 T_MISS
	tag_store->allocate() - tag_index=15
ldst_unit::memory_cycle() - mf=0x7f07f3887eb0 BYPASS
ldst_unit::memory_cycle() - mf=0x7f07e1427b70
TAG STORE PROBE
	addr=2147483968
	block_addr=2147483904
	tag=2147483904
	idx is LFU
	idx=20 T_MISS
	tag_store->allocate() - tag_index=20
ldst_unit::memory_cycle() - mf=0x7f07e1427b70 BYPASS
ldst_unit::memory_cycle() - mf=0x7f07e1430f30
TAG STORE PROBE
	addr=2147497984
	block_addr=2147497984
	tag=2147497984
	idx is LFU
	idx=143 T_MISS
	tag_store->allocate() - tag_index=143
ldst_unit::memory_cycle() - mf=0x7f07e1430f30 BYPASS
ldst_unit::memory_cycle() - mf=0x7f07e14328d0
TAG STORE PROBE
	addr=2147496672
	block_addr=2147496576
	tag=2147496576
	idx is LFU
	idx=39 T_MISS
	tag_store->allocate() - tag_index=39
ldst_unit::memory_cycle() - mf=0x7f07e14328d0 BYPASS
ldst_unit::memory_cycle() - mf=0x7f07e14342c0
TAG STORE PROBE
	addr=2147487808
	block_addr=2147487744
	tag=2147487744
	idx is LFU
	idx=7 T_MISS
	tag_store->allocate() - tag_index=7
ldst_unit::memory_cycle() - mf=0x7f07e14342c0 BYPASS
ldst_unit::memory_cycle() - mf=0x7f07e143a230
TAG STORE PROBE
	addr=2147502464
	block_addr=2147502464
	tag=2147502464
	idx is LFU
	idx=141 T_MISS
	tag_store->allocate() - tag_index=141
ldst_unit::memory_cycle() - mf=0x7f07e143a230 BYPASS
ldst_unit::memory_cycle() - mf=0x7f07e1443610
TAG STORE PROBE
	addr=2147495936
	block_addr=2147495936
	tag=2147495936
	idx is LFU
	idx=15 T_MISS
	tag_store->allocate() - tag_index=15
ldst_unit::memory_cycle() - mf=0x7f07e1443610 BYPASS
ldst_unit::memory_cycle() - mf=0x7f07e14450f0
TAG STORE PROBE
	addr=2147486464
	block_addr=2147486464
	tag=2147486464
	idx is LFU
	idx=182 T_MISS
	tag_store->allocate() - tag_index=182
ldst_unit::memory_cycle() - mf=0x7f07e14450f0 BYPASS
ldst_unit::memory_cycle() - mf=0x7f07e1447790
TAG STORE PROBE
	addr=2147494016
	block_addr=2147494016
	tag=2147494016
	idx is LFU
	idx=134 T_MISS
	tag_store->allocate() - tag_index=134
ldst_unit::memory_cycle() - mf=0x7f07e1447790 BYPASS
ldst_unit::memory_cycle() - mf=0x7f07e144e080
TAG STORE PROBE
	addr=2147502400
	block_addr=2147502336
	tag=2147502336
	idx is LFU
	idx=133 T_MISS
	tag_store->allocate() - tag_index=133
ldst_unit::memory_cycle() - mf=0x7f07e144e080 BYPASS
ldst_unit::memory_cycle() - mf=0x7f07e1457f30
TAG STORE PROBE
	addr=2147486432
	block_addr=2147486336
	tag=2147486336
	idx is LFU
	idx=174 T_MISS
	tag_store->allocate() - tag_index=174
ldst_unit::memory_cycle() - mf=0x7f07e1457f30 BYPASS
ldst_unit::memory_cycle() - mf=0x7f07e1459980
TAG STORE PROBE
	addr=2147493952
	block_addr=2147493888
	tag=2147493888
	idx is LFU
	idx=142 T_MISS
	tag_store->allocate() - tag_index=142
ldst_unit::memory_cycle() - mf=0x7f07e1459980 BYPASS
ldst_unit::memory_cycle() - mf=0x7f07e145bf00
TAG STORE PROBE
	addr=2147485824
	block_addr=2147485824
	tag=2147485824
	idx is LFU
	idx=142 T_MISS
	tag_store->allocate() - tag_index=142
ldst_unit::memory_cycle() - mf=0x7f07e145bf00 BYPASS
ldst_unit::memory_cycle() - mf=0x7f07e14601b0
TAG STORE PROBE
	addr=2147500416
	block_addr=2147500416
	tag=2147500416
	idx is LFU
	idx=13 T_MISS
	tag_store->allocate() - tag_index=13
ldst_unit::memory_cycle() - mf=0x7f07e14601b0 BYPASS
ldst_unit::memory_cycle() - mf=0x7f07e1468520
TAG STORE PROBE
	addr=2147493888
	block_addr=2147493888
	tag=2147493888
	idx is LFU
	idx=142 T_MISS
	tag_store->allocate() - tag_index=142
ldst_unit::memory_cycle() - mf=0x7f07e1468520 BYPASS
ldst_unit::memory_cycle() - mf=0x7f07e146ab90
TAG STORE PROBE
	addr=2147484416
	block_addr=2147484416
	tag=2147484416
	idx is LFU
	idx=54 T_MISS
	tag_store->allocate() - tag_index=54
ldst_unit::memory_cycle() - mf=0x7f07e146ab90 BYPASS
ldst_unit::memory_cycle() - mf=0x7f07e146c8a0
TAG STORE PROBE
	addr=2147491968
	block_addr=2147491968
	tag=2147491968
	idx is LFU
	idx=6 T_MISS
	tag_store->allocate() - tag_index=6
ldst_unit::memory_cycle() - mf=0x7f07e146c8a0 BYPASS
ldst_unit::memory_cycle() - mf=0x7f07e146ed90
TAG STORE PROBE
	addr=2147483776
	block_addr=2147483776
	tag=2147483776
	idx is LFU
	idx=14 T_MISS
	tag_store->allocate() - tag_index=14
ldst_unit::memory_cycle() - mf=0x7f07e146ed90 BYPASS
ldst_unit::memory_cycle() - mf=0x7f07e1473cb0
TAG STORE PROBE
	addr=2147500352
	block_addr=2147500288
	tag=2147500288
	idx is LFU
	idx=5 T_MISS
	tag_store->allocate() - tag_index=5
ldst_unit::memory_cycle() - mf=0x7f07e1473cb0 BYPASS
ldst_unit::memory_cycle() - mf=0x7f07e14759a0
TAG STORE PROBE
	addr=2147486080
	block_addr=2147486080
	tag=2147486080
	idx is LFU
	idx=158 T_MISS
	tag_store->allocate() - tag_index=158
ldst_unit::memory_cycle() - mf=0x7f07e14759a0 BYPASS
ldst_unit::memory_cycle() - mf=0x7f07e147baf0
TAG STORE PROBE
	addr=2147491840
	block_addr=2147491840
	tag=2147491840
	idx is LFU
	idx=14 T_MISS
	tag_store->allocate() - tag_index=14
ldst_unit::memory_cycle() - mf=0x7f07e147baf0 BYPASS
ldst_unit::memory_cycle() - mf=0x7f07e147d3c0
TAG STORE PROBE
	addr=2147484384
	block_addr=2147484288
	tag=2147484288
	idx is LFU
	idx=46 T_MISS
	tag_store->allocate() - tag_index=46
ldst_unit::memory_cycle() - mf=0x7f07e147d3c0 BYPASS
ldst_unit::memory_cycle() - mf=0x7f07e147ceb0
TAG STORE PROBE
	addr=2147491904
	block_addr=2147491840
	tag=2147491840
	idx is LFU
	idx=14 T_MISS
	tag_store->allocate() - tag_index=14
ldst_unit::memory_cycle() - mf=0x7f07e147ceb0 BYPASS
ldst_unit::memory_cycle() - mf=0x7f07e14830d0
TAG STORE PROBE
	addr=2147486720
	block_addr=2147486720
	tag=2147486720
	idx is LFU
	idx=198 T_MISS
	tag_store->allocate() - tag_index=198
ldst_unit::memory_cycle() - mf=0x7f07e14830d0 BYPASS
ldst_unit::memory_cycle() - mf=0x7f07e14856a0
TAG STORE PROBE
	addr=2147486048
	block_addr=2147485952
	tag=2147485952
	idx is LFU
	idx=150 T_MISS
	tag_store->allocate() - tag_index=150
ldst_unit::memory_cycle() - mf=0x7f07e14856a0 BYPASS
ldst_unit::memory_cycle() - mf=0x7f07e148dab0
TAG STORE PROBE
	addr=2147506176
	block_addr=2147506176
	tag=2147506176
	idx is LFU
	idx=151 T_MISS
	tag_store->allocate() - tag_index=151
ldst_unit::memory_cycle() - mf=0x7f07e148dab0 BYPASS
ldst_unit::memory_cycle() - mf=0x7f07e148f2c0
TAG STORE PROBE
	addr=2147494656
	block_addr=2147494656
	tag=2147494656
	idx is LFU
	idx=190 T_MISS
	tag_store->allocate() - tag_index=190
ldst_unit::memory_cycle() - mf=0x7f07e148f2c0 BYPASS
ldst_unit::memory_cycle() - mf=0x7f07e1491860
TAG STORE PROBE
	addr=2147498112
	block_addr=2147498112
	tag=2147498112
	idx is LFU
	idx=133 T_MISS
	tag_store->allocate() - tag_index=133
ldst_unit::memory_cycle() - mf=0x7f07e1491860 BYPASS
ldst_unit::memory_cycle() - mf=0x7f07e1493360
TAG STORE PROBE
	addr=2147494016
	block_addr=2147494016
	tag=2147494016
	idx is LFU
	idx=134 T_MISS
	tag_store->allocate() - tag_index=134
ldst_unit::memory_cycle() - mf=0x7f07e1493360 BYPASS
ldst_unit::memory_cycle() - mf=0x7f07e14980f0
TAG STORE PROBE
	addr=2147484672
	block_addr=2147484672
	tag=2147484672
	idx is LFU
	idx=70 T_MISS
	tag_store->allocate() - tag_index=70
ldst_unit::memory_cycle() - mf=0x7f07e14980f0 BYPASS
ldst_unit::memory_cycle() - mf=0x7f07e1499b50
TAG STORE PROBE
	addr=2147484032
	block_addr=2147484032
	tag=2147484032
	idx is LFU
	idx=30 T_MISS
	tag_store->allocate() - tag_index=30
ldst_unit::memory_cycle() - mf=0x7f07e1499b50 BYPASS
ldst_unit::memory_cycle() - mf=0x7f07e14a2d70
TAG STORE PROBE
	addr=2147504128
	block_addr=2147504128
	tag=2147504128
	idx is LFU
	idx=23 T_MISS
	tag_store->allocate() - tag_index=23
ldst_unit::memory_cycle() - mf=0x7f07e14a2d70 BYPASS
ldst_unit::memory_cycle() - mf=0x7f07e14a5410
TAG STORE PROBE
	addr=2147494624
	block_addr=2147494528
	tag=2147494528
	idx is LFU
	idx=166 T_MISS
	tag_store->allocate() - tag_index=166
ldst_unit::memory_cycle() - mf=0x7f07e14a5410 BYPASS
ldst_unit::memory_cycle() - delete mf=0x7f07e14a5410
ldst_unit::memory_cycle() - mf=0x7f07e14a60f0
TAG STORE PROBE
	addr=2147498048
	block_addr=2147497984
	tag=2147497984
	idx is LFU
	idx=141 T_MISS
	tag_store->allocate() - tag_index=141
ldst_unit::memory_cycle() - mf=0x7f07e14a60f0 BYPASS
ldst_unit::memory_cycle() - mf=0x7f07e14a7ab0
TAG STORE PROBE
	addr=2147491968
	block_addr=2147491968
	tag=2147491968
	idx is LFU
	idx=6 T_MISS
	tag_store->allocate() - tag_index=6
ldst_unit::memory_cycle() - mf=0x7f07e14a7ab0 BYPASS
ldst_unit::memory_cycle() - mf=0x7f07e14abd60
TAG STORE PROBE
	addr=2147507200
	block_addr=2147507200
	tag=2147507200
	idx is LFU
	idx=215 T_MISS
	tag_store->allocate() - tag_index=215
ldst_unit::memory_cycle() - mf=0x7f07e14abd60 BYPASS
ldst_unit::memory_cycle() - delete mf=0x7f07e14abd60
ldst_unit::memory_cycle() - mf=0x7f07e14ad4c0
TAG STORE PROBE
	addr=2147484000
	block_addr=2147483904
	tag=2147483904
	idx is LFU
	idx=22 T_MISS
	tag_store->allocate() - tag_index=22
ldst_unit::memory_cycle() - mf=0x7f07e14ad4c0 BYPASS
ldst_unit::memory_cycle() - mf=0x7f07e14aefc0
TAG STORE PROBE
	addr=2147498368
	block_addr=2147498368
	tag=2147498368
	idx is LFU
	idx=151 T_MISS
	tag_store->allocate() - tag_index=151
ldst_unit::memory_cycle() - mf=0x7f07e14aefc0 BYPASS
ldst_unit::memory_cycle() - mf=0x7f07e14b53c0
TAG STORE PROBE
	addr=2147490560
	block_addr=2147490560
	tag=2147490560
	idx is LFU
	idx=183 T_MISS
	tag_store->allocate() - tag_index=183
ldst_unit::memory_cycle() - mf=0x7f07e14b53c0 BYPASS
ldst_unit::memory_cycle() - mf=0x7f07e14b7910
TAG STORE PROBE
	addr=2147494624
	block_addr=2147494528
	tag=2147494528
	idx=166 T_HIT
ldst_unit::memory_cycle() - mf=0x7f07e14b7910 BYPASS
ldst_unit::memory_cycle() - mf=0x7f07e14b7480
TAG STORE PROBE
	addr=2147496064
	block_addr=2147496064
	tag=2147496064
	idx is LFU
	idx=5 T_MISS
	tag_store->allocate() - tag_index=5
ldst_unit::memory_cycle() - mf=0x7f07e14b7480 BYPASS
ldst_unit::memory_cycle() - mf=0x7f07e14bb5f0
TAG STORE PROBE
	addr=2147510400
	block_addr=2147510400
	tag=2147510400
	idx is LFU
	idx=151 T_MISS
	tag_store->allocate() - tag_index=151
ldst_unit::memory_cycle() - mf=0x7f07e14bb5f0 BYPASS
ldst_unit::memory_cycle() - mf=0x7f07e14c0bf0
TAG STORE PROBE
	addr=2147507200
	block_addr=2147507200
	tag=2147507200
	idx=215 T_HIT
ldst_unit::memory_cycle() - mf=0x7f07e14c0bf0 BYPASS
ldst_unit::memory_cycle() - delete mf=0x7f07e14c0bf0
ldst_unit::memory_cycle() - mf=0x7f07e14c2390
TAG STORE PROBE
	addr=2147498368
	block_addr=2147498368
	tag=2147498368
	idx is LFU
	idx=149 T_MISS
	tag_store->allocate() - tag_index=149
ldst_unit::memory_cycle() - mf=0x7f07e14c2390 BYPASS
ldst_unit::memory_cycle() - mf=0x7f07e14c3f20
TAG STORE PROBE
	addr=2147496320
	block_addr=2147496320
	tag=2147496320
	idx is LFU
	idx=23 T_MISS
	tag_store->allocate() - tag_index=23
ldst_unit::memory_cycle() - mf=0x7f07e14c3f20 BYPASS
ldst_unit::memory_cycle() - mf=0x7f07e14cab00
TAG STORE PROBE
	addr=2147490496
	block_addr=2147490432
	tag=2147490432
	idx is LFU
	idx=175 T_MISS
	tag_store->allocate() - tag_index=175
ldst_unit::memory_cycle() - mf=0x7f07e14cab00 BYPASS
ldst_unit::memory_cycle() - mf=0x7f07e14ca840
TAG STORE PROBE
	addr=2147492608
	block_addr=2147492608
	tag=2147492608
	idx is LFU
	idx=62 T_MISS
	tag_store->allocate() - tag_index=62
ldst_unit::memory_cycle() - mf=0x7f07e14ca840 BYPASS
ldst_unit::memory_cycle() - delete mf=0x7f07e14ca840
ldst_unit::memory_cycle() - mf=0x7f07e14d0e60
TAG STORE PROBE
	addr=2147496000
	block_addr=2147495936
	tag=2147495936
	idx is LFU
	idx=13 T_MISS
	tag_store->allocate() - tag_index=13
ldst_unit::memory_cycle() - mf=0x7f07e14d0e60 BYPASS
ldst_unit::memory_cycle() - mf=0x7f07e14d0950
TAG STORE PROBE
	addr=2147508352
	block_addr=2147508352
	tag=2147508352
	idx is LFU
	idx=23 T_MISS
	tag_store->allocate() - tag_index=23
ldst_unit::memory_cycle() - mf=0x7f07e14d0950 BYPASS
ldst_unit::memory_cycle() - mf=0x7f07e14d6ae0
TAG STORE PROBE
	addr=2147507200
	block_addr=2147507200
	tag=2147507200
	idx=215 T_HIT
ldst_unit::memory_cycle() - mf=0x7f07e14d6ae0 BYPASS
ldst_unit::memory_cycle() - delete mf=0x7f07e14d6ae0
ldst_unit::memory_cycle() - mf=0x7f07e14d82b0
TAG STORE PROBE
	addr=2147498336
	block_addr=2147498240
	tag=2147498240
	idx is LFU
	idx=157 T_MISS
	tag_store->allocate() - tag_index=157
ldst_unit::memory_cycle() - mf=0x7f07e14d82b0 BYPASS
ldst_unit::memory_cycle() - mf=0x7f07e14da870
TAG STORE PROBE
	addr=2147490944
	block_addr=2147490944
	tag=2147490944
	idx is LFU
	idx=207 T_MISS
	tag_store->allocate() - tag_index=207
ldst_unit::memory_cycle() - mf=0x7f07e14da870 BYPASS
ldst_unit::memory_cycle() - mf=0x7f07e14e0af0
TAG STORE PROBE
	addr=2147488512
	block_addr=2147488512
	tag=2147488512
	idx is LFU
	idx=55 T_MISS
	tag_store->allocate() - tag_index=55
ldst_unit::memory_cycle() - mf=0x7f07e14e0af0 BYPASS
ldst_unit::memory_cycle() - mf=0x7f07e14e2530
TAG STORE PROBE
	addr=2147492608
	block_addr=2147492608
	tag=2147492608
	idx=62 T_HIT
ldst_unit::memory_cycle() - mf=0x7f07e14e2530 BYPASS
ldst_unit::memory_cycle() - mf=0x7f07e14e2130
TAG STORE PROBE
	addr=2147485824
	block_addr=2147485824
	tag=2147485824
	idx is LFU
	idx=140 T_MISS
	tag_store->allocate() - tag_index=140
ldst_unit::memory_cycle() - mf=0x7f07e14e2130 BYPASS
ldst_unit::memory_cycle() - mf=0x7f07e14e8bb0
TAG STORE PROBE
	addr=2147507200
	block_addr=2147507200
	tag=2147507200
	idx=215 T_HIT
ldst_unit::l1d_process_memory_access_queue() - mf=0x7f07e14e8bb0
l1_cache::access() - mf=0x7f07e14e8bb0
l1_cache::process_tag_probe() - mf=0x7f07e14e8bb0
l1_cache::rd_miss_base() - mf=0x7f07e14e8bb0
l1_cache::rd_miss_base() - mf=0x7f07e14e8bb0
l1_cache::send_read_request_2() - mf=0x7f07e14e8bb0
		access 2
ldst_unit::memory_cycle() - mf=0x7f07e14e8680
TAG STORE PROBE
	addr=2147496320
	block_addr=2147496320
	tag=2147496320
	idx is LFU
	idx=21 T_MISS
	tag_store->allocate() - tag_index=21
ldst_unit::memory_cycle() - mf=0x7f07e14e8680 BYPASS
ldst_unit::memory_cycle() - mf=0x7f07e14ec5a0
TAG STORE PROBE
	addr=2147490912
	block_addr=2147490816
	tag=2147490816
	idx is LFU
	idx=199 T_MISS
	tag_store->allocate() - tag_index=199
ldst_unit::memory_cycle() - mf=0x7f07e14ec5a0 BYPASS
ldst_unit::memory_cycle() - mf=0x7f07e14f6760
TAG STORE PROBE
	addr=2147488448
	block_addr=2147488384
	tag=2147488384
	idx is LFU
	idx=47 T_MISS
	tag_store->allocate() - tag_index=47
ldst_unit::memory_cycle() - mf=0x7f07e14f6760 BYPASS
ldst_unit::memory_cycle() - mf=0x7f07e14f8d70
TAG STORE PROBE
	addr=2147492576
	block_addr=2147492480
	tag=2147492480
	idx is LFU
	idx=38 T_MISS
	tag_store->allocate() - tag_index=38
ldst_unit::memory_cycle() - mf=0x7f07e14f8d70 BYPASS
ldst_unit::memory_cycle() - delete mf=0x7f07e14f8d70
ldst_unit::memory_cycle() - mf=0x7f07e14f99f0
TAG STORE PROBE
	addr=2147485760
	block_addr=2147485696
	tag=2147485696
	idx is LFU
	idx=132 T_MISS
	tag_store->allocate() - tag_index=132
ldst_unit::memory_cycle() - mf=0x7f07e14f99f0 BYPASS
ldst_unit::memory_cycle() - mf=0x7f07e14ff010
TAG STORE PROBE
	addr=2147505152
	block_addr=2147505152
	tag=2147505152
	idx is LFU
	idx=87 T_MISS
	tag_store->allocate() - tag_index=87
ldst_unit::memory_cycle() - mf=0x7f07e14ff010 BYPASS
ldst_unit::memory_cycle() - delete mf=0x7f07e14ff010
ldst_unit::memory_cycle() - mf=0x7f07e14ff6b0
TAG STORE PROBE
	addr=2147496288
	block_addr=2147496192
	tag=2147496192
	idx is LFU
	idx=29 T_MISS
	tag_store->allocate() - tag_index=29
ldst_unit::memory_cycle() - mf=0x7f07e14ff6b0 BYPASS
ldst_unit::memory_cycle() - mf=0x7f07e15010a0
TAG STORE PROBE
	addr=2147488896
	block_addr=2147488896
	tag=2147488896
	idx is LFU
	idx=79 T_MISS
	tag_store->allocate() - tag_index=79
ldst_unit::memory_cycle() - mf=0x7f07e15010a0 BYPASS
ldst_unit::memory_cycle() - mf=0x7f07e1506090
TAG STORE PROBE
	addr=2147486336
	block_addr=2147486336
	tag=2147486336
	idx is LFU
	idx=175 T_MISS
	tag_store->allocate() - tag_index=175
ldst_unit::memory_cycle() - mf=0x7f07e1506090 BYPASS
ldst_unit::memory_cycle() - mf=0x7f07e15090f0
TAG STORE PROBE
	addr=2147486464
	block_addr=2147486464
	tag=2147486464
	idx is LFU
	idx=182 T_MISS
	tag_store->allocate() - tag_index=182
ldst_unit::memory_cycle() - mf=0x7f07e15090f0 BYPASS
ldst_unit::memory_cycle() - mf=0x7f07e150ab00
TAG STORE PROBE
	addr=2147492576
	block_addr=2147492480
	tag=2147492480
	idx=38 T_HIT
ldst_unit::memory_cycle() - mf=0x7f07e150ab00 BYPASS
ldst_unit::memory_cycle() - mf=0x7f07e150c880
TAG STORE PROBE
	addr=2147483776
	block_addr=2147483776
	tag=2147483776
	idx is LFU
	idx=12 T_MISS
	tag_store->allocate() - tag_index=12
ldst_unit::memory_cycle() - mf=0x7f07e150c880 BYPASS
ldst_unit::memory_cycle() - mf=0x7f07e150eea0
TAG STORE PROBE
	addr=2147502208
	block_addr=2147502208
	tag=2147502208
	idx is LFU
	idx=158 T_MISS
	tag_store->allocate() - tag_index=158
ldst_unit::memory_cycle() - mf=0x7f07e150eea0 BYPASS
ldst_unit::memory_cycle() - mf=0x7f07e1513ac0
TAG STORE PROBE
	addr=2147505152
	block_addr=2147505152
	tag=2147505152
	idx=87 T_HIT
ldst_unit::memory_cycle() - mf=0x7f07e1513ac0 BYPASS
GPGPU-Sim PTX: 800000 instructions simulated : ctaid=(9,1,0) tid=(15,14,0)
ldst_unit::memory_cycle() - mf=0x7f07e1515580
TAG STORE PROBE
	addr=2147506560
	block_addr=2147506560
	tag=2147506560
	idx is LFU
	idx=143 T_MISS
	tag_store->allocate() - tag_index=143
ldst_unit::memory_cycle() - mf=0x7f07e1515580 BYPASS
ldst_unit::memory_cycle() - mf=0x7f07e1517ad0
TAG STORE PROBE
	addr=2147488864
	block_addr=2147488768
	tag=2147488768
	idx is LFU
	idx=71 T_MISS
	tag_store->allocate() - tag_index=71
ldst_unit::memory_cycle() - mf=0x7f07e1517ad0 BYPASS
ldst_unit::memory_cycle() - mf=0x7f07e151d700
TAG STORE PROBE
	addr=2147484288
	block_addr=2147484288
	tag=2147484288
	idx is LFU
	idx=47 T_MISS
	tag_store->allocate() - tag_index=47
ldst_unit::memory_cycle() - mf=0x7f07e151d700 BYPASS
ldst_unit::memory_cycle() - mf=0x7f07e151ef10
TAG STORE PROBE
	addr=2147486400
	block_addr=2147486336
	tag=2147486336
	idx is LFU
	idx=174 T_MISS
	tag_store->allocate() - tag_index=174
ldst_unit::memory_cycle() - mf=0x7f07e151ef10 BYPASS
ldst_unit::memory_cycle() - mf=0x7f07e15209f0
TAG STORE PROBE
	addr=2147491328
	block_addr=2147491328
	tag=2147491328
	idx is LFU
	idx=231 T_MISS
	tag_store->allocate() - tag_index=231
ldst_unit::memory_cycle() - mf=0x7f07e15209f0 BYPASS
ldst_unit::memory_cycle() - delete mf=0x7f07e15209f0
ldst_unit::memory_cycle() - mf=0x7f07e1520f70
TAG STORE PROBE
	addr=2147483712
	block_addr=2147483648
	tag=2147483648
	idx is LFU
	idx=4 T_MISS
	tag_store->allocate() - tag_index=4
ldst_unit::memory_cycle() - mf=0x7f07e1520f70 BYPASS
ldst_unit::memory_cycle() - mf=0x7f07e1522900
TAG STORE PROBE
	addr=2147500160
	block_addr=2147500160
	tag=2147500160
	idx is LFU
	idx=30 T_MISS
	tag_store->allocate() - tag_index=30
ldst_unit::memory_cycle() - mf=0x7f07e1522900 BYPASS
ldst_unit::memory_cycle() - mf=0x7f07e15279e0
TAG STORE PROBE
	addr=2147506528
	block_addr=2147506432
	tag=2147506432
	idx is LFU
	idx=135 T_MISS
	tag_store->allocate() - tag_index=135
ldst_unit::memory_cycle() - mf=0x7f07e15279e0 BYPASS
ldst_unit::memory_cycle() - mf=0x7f07e1530840
TAG STORE PROBE
	addr=2147484416
	block_addr=2147484416
	tag=2147484416
	idx is LFU
	idx=54 T_MISS
	tag_store->allocate() - tag_index=54
ldst_unit::memory_cycle() - mf=0x7f07e1530840 BYPASS
ldst_unit::memory_cycle() - mf=0x7f07e1532050
TAG STORE PROBE
	addr=2147491328
	block_addr=2147491328
	tag=2147491328
	idx=231 T_HIT
ldst_unit::memory_cycle() - mf=0x7f07e1532050 BYPASS
ldst_unit::memory_cycle() - delete mf=0x7f07e1532050
ldst_unit::memory_cycle() - mf=0x7f07e1532620
TAG STORE PROBE
	addr=2147506304
	block_addr=2147506304
	tag=2147506304
	idx is LFU
	idx=159 T_MISS
	tag_store->allocate() - tag_index=159
ldst_unit::memory_cycle() - mf=0x7f07e1532620 BYPASS
ldst_unit::memory_cycle() - mf=0x7f07e15341e0
TAG STORE PROBE
	addr=2147490688
	block_addr=2147490688
	tag=2147490688
	idx is LFU
	idx=191 T_MISS
	tag_store->allocate() - tag_index=191
ldst_unit::memory_cycle() - mf=0x7f07e15341e0 BYPASS
ldst_unit::memory_cycle() - mf=0x7f07e1538d80
TAG STORE PROBE
	addr=2147499776
	block_addr=2147499776
	tag=2147499776
	idx is LFU
	idx=255 T_MISS
	tag_store->allocate() - tag_index=255
ldst_unit::memory_cycle() - mf=0x7f07e1538d80 BYPASS
ldst_unit::memory_cycle() - delete mf=0x7f07e1538d80
ldst_unit::memory_cycle() - mf=0x7f07e1539b20
TAG STORE PROBE
	addr=2147504512
	block_addr=2147504512
	tag=2147504512
	idx is LFU
	idx=15 T_MISS
	tag_store->allocate() - tag_index=15
ldst_unit::memory_cycle() - mf=0x7f07e1539b20 BYPASS
ldst_unit::memory_cycle() - mf=0x7f07e15428f0
TAG STORE PROBE
	addr=2147484352
	block_addr=2147484288
	tag=2147484288
	idx is LFU
	idx=46 T_MISS
	tag_store->allocate() - tag_index=46
ldst_unit::memory_cycle() - mf=0x7f07e15428f0 BYPASS
ldst_unit::memory_cycle() - mf=0x7f07e1544340
TAG STORE PROBE
	addr=2147491328
	block_addr=2147491328
	tag=2147491328
	idx=231 T_HIT
ldst_unit::memory_cycle() - mf=0x7f07e1544340 BYPASS
ldst_unit::memory_cycle() - delete mf=0x7f07e1544340
ldst_unit::memory_cycle() - mf=0x7f07e1545410
TAG STORE PROBE
	addr=2147506240
	block_addr=2147506176
	tag=2147506176
	idx is LFU
	idx=151 T_MISS
	tag_store->allocate() - tag_index=151
ldst_unit::memory_cycle() - mf=0x7f07e1545410 BYPASS
ldst_unit::memory_cycle() - mf=0x7f07e1546e90
TAG STORE PROBE
	addr=2147490624
	block_addr=2147490560
	tag=2147490560
	idx is LFU
	idx=183 T_MISS
	tag_store->allocate() - tag_index=183
ldst_unit::memory_cycle() - mf=0x7f07e1546e90 BYPASS
ldst_unit::memory_cycle() - mf=0x7f07e154b300
TAG STORE PROBE
	addr=2147499776
	block_addr=2147499776
	tag=2147499776
	idx=255 T_HIT
ldst_unit::memory_cycle() - mf=0x7f07e154b300 BYPASS
ldst_unit::memory_cycle() - delete mf=0x7f07e154b300
ldst_unit::memory_cycle() - mf=0x7f07e154b900
TAG STORE PROBE
	addr=2147504480
	block_addr=2147504384
	tag=2147504384
	idx is LFU
	idx=7 T_MISS
	tag_store->allocate() - tag_index=7
ldst_unit::memory_cycle() - mf=0x7f07e154b900 BYPASS
ldst_unit::memory_cycle() - mf=0x7f07e1557280
TAG STORE PROBE
	addr=2147491328
	block_addr=2147491328
	tag=2147491328
	idx=231 T_HIT
ldst_unit::l1d_process_memory_access_queue() - mf=0x7f07e1557280
l1_cache::access() - mf=0x7f07e1557280
l1_cache::process_tag_probe() - mf=0x7f07e1557280
l1_cache::rd_miss_base() - mf=0x7f07e1557280
l1_cache::rd_miss_base() - mf=0x7f07e1557280
l1_cache::send_read_request_2() - mf=0x7f07e1557280
		access 2
ldst_unit::memory_cycle() - mf=0x7f07e1558d20
TAG STORE PROBE
	addr=2147504256
	block_addr=2147504256
	tag=2147504256
	idx is LFU
	idx=31 T_MISS
	tag_store->allocate() - tag_index=31
ldst_unit::memory_cycle() - mf=0x7f07e1558d20 BYPASS
ldst_unit::memory_cycle() - mf=0x7f07e155b2e0
TAG STORE PROBE
	addr=2147488640
	block_addr=2147488640
	tag=2147488640
	idx is LFU
	idx=63 T_MISS
	tag_store->allocate() - tag_index=63
ldst_unit::memory_cycle() - mf=0x7f07e155b2e0 BYPASS
ldst_unit::memory_cycle() - mf=0x7f07e155fcd0
TAG STORE PROBE
	addr=2147499776
	block_addr=2147499776
	tag=2147499776
	idx=255 T_HIT
ldst_unit::memory_cycle() - mf=0x7f07e155fcd0 BYPASS
ldst_unit::memory_cycle() - delete mf=0x7f07e155fcd0
ldst_unit::memory_cycle() - mf=0x7f07e1567a40
TAG STORE PROBE
	addr=2147498752
	block_addr=2147498752
	tag=2147498752
	idx is LFU
	idx=191 T_MISS
	tag_store->allocate() - tag_index=191
ldst_unit::memory_cycle() - mf=0x7f07e1567a40 BYPASS
ldst_unit::memory_cycle() - mf=0x7f07e1569370
TAG STORE PROBE
	addr=2147491264
	block_addr=2147491200
	tag=2147491200
	idx is LFU
	idx=223 T_MISS
	tag_store->allocate() - tag_index=223
ldst_unit::memory_cycle() - mf=0x7f07e1569370 BYPASS
ldst_unit::memory_cycle() - delete mf=0x7f07e1569370
ldst_unit::memory_cycle() - mf=0x7f07e156a320
TAG STORE PROBE
	addr=2147504192
	block_addr=2147504128
	tag=2147504128
	idx is LFU
	idx=23 T_MISS
	tag_store->allocate() - tag_index=23
ldst_unit::memory_cycle() - mf=0x7f07e156a320 BYPASS
ldst_unit::memory_cycle() - mf=0x7f07e156bca0
TAG STORE PROBE
	addr=2147488576
	block_addr=2147488512
	tag=2147488512
	idx is LFU
	idx=55 T_MISS
	tag_store->allocate() - tag_index=55
ldst_unit::memory_cycle() - mf=0x7f07e156bca0 BYPASS
ldst_unit::memory_cycle() - mf=0x7f07e1571200
TAG STORE PROBE
	addr=2147499776
	block_addr=2147499776
	tag=2147499776
	idx=255 T_HIT
ldst_unit::l1d_process_memory_access_queue() - mf=0x7f07e1571200
l1_cache::access() - mf=0x7f07e1571200
l1_cache::process_tag_probe() - mf=0x7f07e1571200
l1_cache::rd_miss_base() - mf=0x7f07e1571200
l1_cache::rd_miss_base() - mf=0x7f07e1571200
l1_cache::send_read_request_2() - mf=0x7f07e1571200
		access 2
ldst_unit::memory_cycle() - mf=0x7f07e1455e50
TAG STORE PROBE
	addr=2147490432
	block_addr=2147490432
	tag=2147490432
	idx is LFU
	idx=174 T_MISS
	tag_store->allocate() - tag_index=174
ldst_unit::memory_cycle() - mf=0x7f07e1455e50 BYPASS
ldst_unit::memory_cycle() - mf=0x7f07e15790d0
TAG STORE PROBE
	addr=2147498688
	block_addr=2147498624
	tag=2147498624
	idx is LFU
	idx=167 T_MISS
	tag_store->allocate() - tag_index=167
ldst_unit::memory_cycle() - mf=0x7f07e15790d0 BYPASS
ldst_unit::memory_cycle() - mf=0x7f07e157cd30
TAG STORE PROBE
	addr=2147491264
	block_addr=2147491200
	tag=2147491200
	idx=223 T_HIT
ldst_unit::memory_cycle() - mf=0x7f07e157cd30 BYPASS
ldst_unit::memory_cycle() - delete mf=0x7f07e157cd30
ldst_unit::memory_cycle() - mf=0x7f07e157d330
TAG STORE PROBE
	addr=2147490560
	block_addr=2147490560
	tag=2147490560
	idx is LFU
	idx=183 T_MISS
	tag_store->allocate() - tag_index=183
ldst_unit::memory_cycle() - mf=0x7f07e157d330 BYPASS
ldst_unit::memory_cycle() - mf=0x7f07e157edd0
TAG STORE PROBE
	addr=2147498880
	block_addr=2147498880
	tag=2147498880
	idx is LFU
	idx=182 T_MISS
	tag_store->allocate() - tag_index=182
ldst_unit::memory_cycle() - mf=0x7f07e157edd0 BYPASS
ldst_unit::memory_cycle() - mf=0x7f07e1584550
TAG STORE PROBE
	addr=2147499744
	block_addr=2147499648
	tag=2147499648
	idx is LFU
	idx=231 T_MISS
	tag_store->allocate() - tag_index=231
ldst_unit::memory_cycle() - mf=0x7f07e1584550 BYPASS
ldst_unit::memory_cycle() - delete mf=0x7f07e1584550
ldst_unit::memory_cycle() - mf=0x7f07e1589860
TAG STORE PROBE
	addr=2147488384
	block_addr=2147488384
	tag=2147488384
	idx is LFU
	idx=46 T_MISS
	tag_store->allocate() - tag_index=46
ldst_unit::memory_cycle() - mf=0x7f07e1589860 BYPASS
ldst_unit::memory_cycle() - mf=0x7f07e15895b0
TAG STORE PROBE
	addr=2147496704
	block_addr=2147496704
	tag=2147496704
	idx is LFU
	idx=63 T_MISS
	tag_store->allocate() - tag_index=63
ldst_unit::memory_cycle() - mf=0x7f07e15895b0 BYPASS
ldst_unit::memory_cycle() - mf=0x7f07e158c690
TAG STORE PROBE
	addr=2147491264
	block_addr=2147491200
	tag=2147491200
	idx=223 T_HIT
ldst_unit::memory_cycle() - mf=0x7f07e158c690 BYPASS
ldst_unit::memory_cycle() - delete mf=0x7f07e158c690
ldst_unit::memory_cycle() - mf=0x7f07e158b610
TAG STORE PROBE
	addr=2147488512
	block_addr=2147488512
	tag=2147488512
	idx is LFU
	idx=55 T_MISS
	tag_store->allocate() - tag_index=55
ldst_unit::memory_cycle() - mf=0x7f07e158b610 BYPASS
ldst_unit::memory_cycle() - delete mf=0x7f07e158b610
ldst_unit::memory_cycle() - mf=0x7f07e158d880
TAG STORE PROBE
	addr=2147498816
	block_addr=2147498752
	tag=2147498752
	idx is LFU
	idx=190 T_MISS
	tag_store->allocate() - tag_index=190
ldst_unit::memory_cycle() - mf=0x7f07e158d880 BYPASS
ldst_unit::memory_cycle() - mf=0x7f07e158fc90
TAG STORE PROBE
	addr=2147498112
	block_addr=2147498112
	tag=2147498112
	idx is LFU
	idx=135 T_MISS
	tag_store->allocate() - tag_index=135
ldst_unit::memory_cycle() - mf=0x7f07e158fc90 BYPASS
ldst_unit::memory_cycle() - mf=0x7f07e1593960
TAG STORE PROBE
	addr=2147499744
	block_addr=2147499648
	tag=2147499648
	idx=231 T_HIT
ldst_unit::memory_cycle() - mf=0x7f07e1593960 BYPASS
ldst_unit::memory_cycle() - delete mf=0x7f07e1593960
ldst_unit::memory_cycle() - mf=0x7f07e159acd0
TAG STORE PROBE
	addr=2147496640
	block_addr=2147496576
	tag=2147496576
	idx is LFU
	idx=39 T_MISS
	tag_store->allocate() - tag_index=39
ldst_unit::memory_cycle() - mf=0x7f07e159acd0 BYPASS
ldst_unit::memory_cycle() - mf=0x7f07e159a750
TAG STORE PROBE
	addr=2147491264
	block_addr=2147491200
	tag=2147491200
	idx=223 T_HIT
ldst_unit::l1d_process_memory_access_queue() - mf=0x7f07e159a750
l1_cache::access() - mf=0x7f07e159a750
l1_cache::process_tag_probe() - mf=0x7f07e159a750
l1_cache::rd_miss_base() - mf=0x7f07e159a750
l1_cache::rd_miss_base() - mf=0x7f07e159a750
l1_cache::send_read_request_2() - mf=0x7f07e159a750
		access 2
ldst_unit::memory_cycle() - mf=0x7f07e159e660
TAG STORE PROBE
	addr=2147488512
	block_addr=2147488512
	tag=2147488512
	idx=55 T_HIT
ldst_unit::memory_cycle() - mf=0x7f07e159e660 BYPASS
ldst_unit::memory_cycle() - mf=0x7f07e15a01a0
TAG STORE PROBE
	addr=2147496832
	block_addr=2147496832
	tag=2147496832
	idx is LFU
	idx=54 T_MISS
	tag_store->allocate() - tag_index=54
ldst_unit::memory_cycle() - mf=0x7f07e15a01a0 BYPASS
ldst_unit::memory_cycle() - mf=0x7f07e15a1c40
TAG STORE PROBE
	addr=2147496064
	block_addr=2147496064
	tag=2147496064
	idx is LFU
	idx=7 T_MISS
	tag_store->allocate() - tag_index=7
ldst_unit::memory_cycle() - mf=0x7f07e15a1c40 BYPASS
ldst_unit::memory_cycle() - mf=0x7f07e15a5b50
TAG STORE PROBE
	addr=2147499744
	block_addr=2147499648
	tag=2147499648
	idx=231 T_HIT
ldst_unit::memory_cycle() - mf=0x7f07e15a5b50 BYPASS
ldst_unit::memory_cycle() - mf=0x7f07e15aaaf0
TAG STORE PROBE
	addr=2147498624
	block_addr=2147498624
	tag=2147498624
	idx is LFU
	idx=167 T_MISS
	tag_store->allocate() - tag_index=167
ldst_unit::memory_cycle() - mf=0x7f07e15aaaf0 BYPASS
ldst_unit::memory_cycle() - mf=0x7f07e15ace10
TAG STORE PROBE
	addr=2147506944
	block_addr=2147506944
	tag=2147506944
	idx is LFU
	idx=166 T_MISS
	tag_store->allocate() - tag_index=166
ldst_unit::memory_cycle() - mf=0x7f07e15ace10 BYPASS
ldst_unit::memory_cycle() - mf=0x7f07e15ac8c0
TAG STORE PROBE
	addr=2147489280
	block_addr=2147489280
	tag=2147489280
	idx is LFU
	idx=103 T_MISS
	tag_store->allocate() - tag_index=103
ldst_unit::memory_cycle() - mf=0x7f07e15ac8c0 BYPASS
ldst_unit::memory_cycle() - delete mf=0x7f07e15ac8c0
ldst_unit::memory_cycle() - mf=0x7f07e15ae880
TAG STORE PROBE
	addr=2147506944
	block_addr=2147506944
	tag=2147506944
	idx is LFU
	idx=167 T_MISS
	tag_store->allocate() - tag_index=167
ldst_unit::memory_cycle() - mf=0x7f07e15ae880 BYPASS
ldst_unit::memory_cycle() - delete mf=0x7f07e15ae880
ldst_unit::memory_cycle() - mf=0x7f07e15af4b0
TAG STORE PROBE
	addr=2147496768
	block_addr=2147496704
	tag=2147496704
	idx is LFU
	idx=62 T_MISS
	tag_store->allocate() - tag_index=62
ldst_unit::memory_cycle() - mf=0x7f07e15af4b0 BYPASS
ldst_unit::memory_cycle() - mf=0x7f07e15b4b20
TAG STORE PROBE
	addr=2147497728
	block_addr=2147497728
	tag=2147497728
	idx is LFU
	idx=127 T_MISS
	tag_store->allocate() - tag_index=127
ldst_unit::memory_cycle() - mf=0x7f07e15b4b20 BYPASS
ldst_unit::memory_cycle() - delete mf=0x7f07e15b4b20
ldst_unit::memory_cycle() - mf=0x7f07e15baa40
TAG STORE PROBE
	addr=2147496576
	block_addr=2147496576
	tag=2147496576
	idx is LFU
	idx=39 T_MISS
	tag_store->allocate() - tag_index=39
ldst_unit::memory_cycle() - mf=0x7f07e15baa40 BYPASS
ldst_unit::memory_cycle() - mf=0x7f07e15ba6e0
TAG STORE PROBE
	addr=2147506880
	block_addr=2147506816
	tag=2147506816
	idx is LFU
	idx=190 T_MISS
	tag_store->allocate() - tag_index=190
ldst_unit::memory_cycle() - mf=0x7f07e15ba6e0 BYPASS
ldst_unit::memory_cycle() - mf=0x7f07e15bbd80
TAG STORE PROBE
	addr=2147489280
	block_addr=2147489280
	tag=2147489280
	idx=103 T_HIT
ldst_unit::memory_cycle() - mf=0x7f07e15bbd80 BYPASS
ldst_unit::memory_cycle() - delete mf=0x7f07e15bbd80
ldst_unit::memory_cycle() - mf=0x7f07f389a930
TAG STORE PROBE
	addr=2147506944
	block_addr=2147506944
	tag=2147506944
	idx=167 T_HIT
ldst_unit::memory_cycle() - mf=0x7f07f389a930 BYPASS
ldst_unit::memory_cycle() - delete mf=0x7f07f389a930
ldst_unit::memory_cycle() - mf=0x7f07e15c19a0
TAG STORE PROBE
	addr=2147507072
	block_addr=2147507072
	tag=2147507072
	idx is LFU
	idx=175 T_MISS
	tag_store->allocate() - tag_index=175
ldst_unit::memory_cycle() - mf=0x7f07e15c19a0 BYPASS
ldst_unit::memory_cycle() - mf=0x7f07e15c63e0
TAG STORE PROBE
	addr=2147497728
	block_addr=2147497728
	tag=2147497728
	idx=127 T_HIT
ldst_unit::memory_cycle() - mf=0x7f07e15c63e0 BYPASS
ldst_unit::memory_cycle() - delete mf=0x7f07e15c63e0
ldst_unit::memory_cycle() - mf=0x7f07e15cf9d0
TAG STORE PROBE
	addr=2147504896
	block_addr=2147504896
	tag=2147504896
	idx is LFU
	idx=38 T_MISS
	tag_store->allocate() - tag_index=38
ldst_unit::memory_cycle() - mf=0x7f07e15cf9d0 BYPASS
ldst_unit::memory_cycle() - mf=0x7f07e15cf440
TAG STORE PROBE
	addr=2147489280
	block_addr=2147489280
	tag=2147489280
	idx=103 T_HIT
ldst_unit::memory_cycle() - mf=0x7f07e15cf440 BYPASS
ldst_unit::memory_cycle() - delete mf=0x7f07e15cf440
ldst_unit::memory_cycle() - mf=0x7f07e15cf440
TAG STORE PROBE
	addr=2147506944
	block_addr=2147506944
	tag=2147506944
	idx=167 T_HIT
ldst_unit::memory_cycle() - mf=0x7f07e15cf440 BYPASS
ldst_unit::memory_cycle() - delete mf=0x7f07e15cf440
ldst_unit::memory_cycle() - mf=0x7f07e15d1970
TAG STORE PROBE
	addr=2147507008
	block_addr=2147506944
	tag=2147506944
	idx is LFU
	idx=167 T_MISS
	tag_store->allocate() - tag_index=167
ldst_unit::memory_cycle() - mf=0x7f07e15d1970 BYPASS
ldst_unit::memory_cycle() - mf=0x7f07e15d5180
TAG STORE PROBE
	addr=2147497728
	block_addr=2147497728
	tag=2147497728
	idx=127 T_HIT
ldst_unit::memory_cycle() - mf=0x7f07e15d5180 BYPASS
ldst_unit::memory_cycle() - delete mf=0x7f07e15d5180
ldst_unit::memory_cycle() - mf=0x7f07e15dc050
TAG STORE PROBE
	addr=2147506816
	block_addr=2147506816
	tag=2147506816
	idx is LFU
	idx=191 T_MISS
	tag_store->allocate() - tag_index=191
ldst_unit::memory_cycle() - mf=0x7f07e15dc050 BYPASS
ldst_unit::memory_cycle() - mf=0x7f07e15dd860
TAG STORE PROBE
	addr=2147504832
	block_addr=2147504768
	tag=2147504768
	idx is LFU
	idx=62 T_MISS
	tag_store->allocate() - tag_index=62
ldst_unit::memory_cycle() - mf=0x7f07e15dd860 BYPASS
ldst_unit::memory_cycle() - mf=0x7f07e15dd1d0
TAG STORE PROBE
	addr=2147489280
	block_addr=2147489280
	tag=2147489280
	idx=103 T_HIT
ldst_unit::l1d_process_memory_access_queue() - mf=0x7f07e15dd1d0
l1_cache::access() - mf=0x7f07e15dd1d0
l1_cache::process_tag_probe() - mf=0x7f07e15dd1d0
l1_cache::rd_miss_base() - mf=0x7f07e15dd1d0
l1_cache::rd_miss_base() - mf=0x7f07e15dd1d0
l1_cache::send_read_request_2() - mf=0x7f07e15dd1d0
		access 2
ldst_unit::memory_cycle() - mf=0x7f07e15e0e90
TAG STORE PROBE
	addr=2147506944
	block_addr=2147506944
	tag=2147506944
	idx=167 T_HIT
ldst_unit::l1d_process_memory_access_queue() - mf=0x7f07e15e0e90
l1_cache::access() - mf=0x7f07e15e0e90
l1_cache::process_tag_probe() - mf=0x7f07e15e0e90
l1_cache::rd_miss_base() - mf=0x7f07e15e0e90
l1_cache::rd_miss_base() - mf=0x7f07e15e0e90
l1_cache::send_read_request_2() - mf=0x7f07e15e0e90
		access 2
ldst_unit::memory_cycle() - mf=0x7f07e15e0980
TAG STORE PROBE
	addr=2147505024
	block_addr=2147505024
	tag=2147505024
	idx is LFU
	idx=47 T_MISS
	tag_store->allocate() - tag_index=47
ldst_unit::memory_cycle() - mf=0x7f07e15e0980 BYPASS
ldst_unit::memory_cycle() - mf=0x7f07e15e6260
TAG STORE PROBE
	addr=2147497728
	block_addr=2147497728
	tag=2147497728
	idx=127 T_HIT
ldst_unit::l1d_process_memory_access_queue() - mf=0x7f07e15e6260
l1_cache::access() - mf=0x7f07e15e6260
l1_cache::process_tag_probe() - mf=0x7f07e15e6260
l1_cache::rd_miss_base() - mf=0x7f07e15e6260
l1_cache::rd_miss_base() - mf=0x7f07e15e6260
l1_cache::send_read_request_2() - mf=0x7f07e15e6260
		access 2
ldst_unit::memory_cycle() - mf=0x7f07e15e8500
TAG STORE PROBE
	addr=2147494272
	block_addr=2147494272
	tag=2147494272
	idx is LFU
	idx=150 T_MISS
	tag_store->allocate() - tag_index=150
ldst_unit::memory_cycle() - mf=0x7f07e15e8500 BYPASS
ldst_unit::memory_cycle() - mf=0x7f07e1598cc0
TAG STORE PROBE
	addr=2147504768
	block_addr=2147504768
	tag=2147504768
	idx is LFU
	idx=63 T_MISS
	tag_store->allocate() - tag_index=63
ldst_unit::memory_cycle() - mf=0x7f07e1598cc0 BYPASS
ldst_unit::memory_cycle() - mf=0x7f07e15f0460
TAG STORE PROBE
	addr=2147491200
	block_addr=2147491200
	tag=2147491200
	idx is LFU
	idx=223 T_MISS
	tag_store->allocate() - tag_index=223
ldst_unit::memory_cycle() - mf=0x7f07e15f0460 BYPASS
ldst_unit::memory_cycle() - delete mf=0x7f07e15f0460
ldst_unit::memory_cycle() - mf=0x7f07e15f0a20
TAG STORE PROBE
	addr=2147489216
	block_addr=2147489152
	tag=2147489152
	idx is LFU
	idx=95 T_MISS
	tag_store->allocate() - tag_index=95
ldst_unit::memory_cycle() - mf=0x7f07e15f0a20 BYPASS
ldst_unit::memory_cycle() - delete mf=0x7f07e15f0a20
ldst_unit::memory_cycle() - mf=0x7f07e15f1670
TAG STORE PROBE
	addr=2147504896
	block_addr=2147504896
	tag=2147504896
	idx is LFU
	idx=39 T_MISS
	tag_store->allocate() - tag_index=39
ldst_unit::memory_cycle() - mf=0x7f07e15f1670 BYPASS
ldst_unit::memory_cycle() - delete mf=0x7f07e15f1670
ldst_unit::memory_cycle() - mf=0x7f07e15f2d80
TAG STORE PROBE
	addr=2147504960
	block_addr=2147504896
	tag=2147504896
	idx is LFU
	idx=39 T_MISS
	tag_store->allocate() - tag_index=39
ldst_unit::memory_cycle() - mf=0x7f07e15f2d80 BYPASS
[...]
l1_cache::process_tag_probe() - mf=0x7f07e1ce3be0
l1_cache::rd_miss_base() - mf=0x7f07e1ce3be0
l1_cache::rd_miss_base() - mf=0x7f07e1ce3be0
l1_cache::send_read_request_2() - mf=0x7f07e1ce3be0
ldst_unit::writeback() - m_next_global_block_addr=2147488512
ldst_unit::memory_cycle() - mf=0x7f07e159f170
TAG STORE PROBE
	addr=2147493344
	block_addr=2147493248
	tag=2147493248
	idx=86 T_HIT
ldst_unit::l1d_process_memory_access_queue() - mf=0x7f07e159f170
l1_cache::access() - mf=0x7f07e159f170
l1_cache::process_tag_probe() - mf=0x7f07e159f170
l1_cache::rd_miss_base() - mf=0x7f07e159f170
l1_cache::rd_miss_base() - mf=0x7f07e159f170
l1_cache::send_read_request_2() - mf=0x7f07e159f170
ldst_unit::memory_cycle() - mf=0x7f07e140a860
TAG STORE PROBE
	addr=2147503232
	block_addr=2147503232
	tag=2147503232
	idx=222 T_HIT
ldst_unit::l1d_process_memory_access_queue() - mf=0x7f07e140a860
l1_cache::access() - mf=0x7f07e140a860
l1_cache::process_tag_probe() - mf=0x7f07e140a860
l1_cache::rd_miss_base() - mf=0x7f07e140a860
l1_cache::rd_miss_base() - mf=0x7f07e140a860
l1_cache::send_read_request_2() - mf=0x7f07e140a860
ldst_unit::memory_cycle() - mf=0x7f07e140a860
TAG STORE PROBE
	addr=2147487616
	block_addr=2147487616
	tag=2147487616
	idx=253 T_HIT
ldst_unit::l1d_process_memory_access_queue() - mf=0x7f07e140a860
l1_cache::access() - mf=0x7f07e140a860
l1_cache::process_tag_probe() - mf=0x7f07e140a860
l1_cache::rd_miss_base() - mf=0x7f07e140a860
l1_cache::rd_miss_base() - mf=0x7f07e140a860
l1_cache::send_read_request_2() - mf=0x7f07e140a860
ldst_unit::memory_cycle() - mf=0x7f07e140a810
TAG STORE PROBE
	addr=2147493728
	block_addr=2147493632
	tag=2147493632
	idx=124 T_HIT
ldst_unit::l1d_process_memory_access_queue() - mf=0x7f07e140a810
l1_cache::access() - mf=0x7f07e140a810
l1_cache::process_tag_probe() - mf=0x7f07e140a810
l1_cache::rd_miss_base() - mf=0x7f07e140a810
l1_cache::rd_miss_base() - mf=0x7f07e140a810
l1_cache::send_read_request_2() - mf=0x7f07e140a810
ldst_unit::memory_cycle() - mf=0x7f07e140a810
TAG STORE PROBE
	addr=2147501952
	block_addr=2147501952
	tag=2147501952
	idx=110 T_HIT
ldst_unit::l1d_process_memory_access_queue() - mf=0x7f07e140a810
l1_cache::access() - mf=0x7f07e140a810
l1_cache::process_tag_probe() - mf=0x7f07e140a810
l1_cache::rd_miss_base() - mf=0x7f07e140a810
l1_cache::rd_miss_base() - mf=0x7f07e140a810
l1_cache::send_read_request_2() - mf=0x7f07e140a810
ldst_unit::memory_cycle() - mf=0x7f07e140a860
TAG STORE PROBE
	addr=2147511552
	block_addr=2147511552
	tag=2147511552
	idx=207 T_HIT
ldst_unit::l1d_process_memory_access_queue() - mf=0x7f07e140a860
l1_cache::access() - mf=0x7f07e140a860
l1_cache::process_tag_probe() - mf=0x7f07e140a860
l1_cache::rd_miss_base() - mf=0x7f07e140a860
l1_cache::rd_miss_base() - mf=0x7f07e140a860
l1_cache::send_read_request_2() - mf=0x7f07e140a860
ldst_unit::memory_cycle() - mf=0x7f07e1e16170
TAG STORE PROBE
	addr=2147501440
	block_addr=2147501440
	tag=2147501440
	idx=78 T_HIT
ldst_unit::l1d_process_memory_access_queue() - mf=0x7f07e1e16170
l1_cache::access() - mf=0x7f07e1e16170
l1_cache::process_tag_probe() - mf=0x7f07e1e16170
l1_cache::rd_miss_base() - mf=0x7f07e1e16170
l1_cache::rd_miss_base() - mf=0x7f07e1e16170
l1_cache::send_read_request_2() - mf=0x7f07e1e16170
ldst_unit::memory_cycle() - mf=0x7f07e1e16ad0
TAG STORE PROBE
	addr=2147493344
	block_addr=2147493248
	tag=2147493248
	idx=86 T_HIT
ldst_unit::l1d_process_memory_access_queue() - mf=0x7f07e1e16ad0
l1_cache::access() - mf=0x7f07e1e16ad0
l1_cache::process_tag_probe() - mf=0x7f07e1e16ad0
l1_cache::rd_miss_base() - mf=0x7f07e1e16ad0
l1_cache::rd_miss_base() - mf=0x7f07e1e16ad0
l1_cache::send_read_request_2() - mf=0x7f07e1e16ad0
ldst_unit::cycle() - mf=0x7f07e17c25e0
TAG STORE PROBE
	addr=2147487872
	block_addr=2147487872
	tag=2147487872
	idx=14 T_HIT
In TS, but rc <=2
peek result - 2
ldst_unit::memory_cycle() - mf=0x7f07e1e17430
TAG STORE PROBE
	addr=2147503232
	block_addr=2147503232
	tag=2147503232
	idx=222 T_HIT
ldst_unit::l1d_process_memory_access_queue() - mf=0x7f07e1e17430
l1_cache::access() - mf=0x7f07e1e17430
l1_cache::process_tag_probe() - mf=0x7f07e1e17430
l1_cache::rd_miss_base() - mf=0x7f07e1e17430
l1_cache::rd_miss_base() - mf=0x7f07e1e17430
l1_cache::send_read_request_2() - mf=0x7f07e1e17430
ldst_unit::memory_cycle() - mf=0x7f07e1e17430
TAG STORE PROBE
	addr=2147487616
	block_addr=2147487616
	tag=2147487616
	idx=253 T_HIT
ldst_unit::l1d_process_memory_access_queue() - mf=0x7f07e1e17430
l1_cache::access() - mf=0x7f07e1e17430
l1_cache::process_tag_probe() - mf=0x7f07e1e17430
l1_cache::rd_miss_base() - mf=0x7f07e1e17430
l1_cache::rd_miss_base() - mf=0x7f07e1e17430
l1_cache::send_read_request_2() - mf=0x7f07e1e17430
ldst_unit::memory_cycle() - mf=0x7f07e1e17430
TAG STORE PROBE
	addr=2147493728
	block_addr=2147493632
	tag=2147493632
	idx=124 T_HIT
ldst_unit::l1d_process_memory_access_queue() - mf=0x7f07e1e17430
l1_cache::access() - mf=0x7f07e1e17430
l1_cache::process_tag_probe() - mf=0x7f07e1e17430
l1_cache::rd_miss_base() - mf=0x7f07e1e17430
l1_cache::rd_miss_base() - mf=0x7f07e1e17430
l1_cache::send_read_request_2() - mf=0x7f07e1e17430
ldst_unit::memory_cycle() - mf=0x7f07e1e17430
TAG STORE PROBE
	addr=2147501952
	block_addr=2147501952
	tag=2147501952
	idx=110 T_HIT
ldst_unit::l1d_process_memory_access_queue() - mf=0x7f07e1e17430
l1_cache::access() - mf=0x7f07e1e17430
l1_cache::process_tag_probe() - mf=0x7f07e1e17430
l1_cache::rd_miss_base() - mf=0x7f07e1e17430
l1_cache::rd_miss_base() - mf=0x7f07e1e17430
l1_cache::send_read_request_2() - mf=0x7f07e1e17430
ldst_unit::memory_cycle() - mf=0x7f07e1e1c500
TAG STORE PROBE
	addr=2147511552
	block_addr=2147511552
	tag=2147511552
	idx=207 T_HIT
ldst_unit::l1d_process_memory_access_queue() - mf=0x7f07e1e1c500
l1_cache::access() - mf=0x7f07e1e1c500
l1_cache::process_tag_probe() - mf=0x7f07e1e1c500
l1_cache::rd_miss_base() - mf=0x7f07e1e1c500
l1_cache::rd_miss_base() - mf=0x7f07e1e1c500
l1_cache::send_read_request_2() - mf=0x7f07e1e1c500
ldst_unit::memory_cycle() - mf=0x7f07e1e1cbb0
TAG STORE PROBE
	addr=2147501440
	block_addr=2147501440
	tag=2147501440
	idx=78 T_HIT
ldst_unit::l1d_process_memory_access_queue() - mf=0x7f07e1e1cbb0
l1_cache::access() - mf=0x7f07e1e1cbb0
l1_cache::process_tag_probe() - mf=0x7f07e1e1cbb0
l1_cache::rd_miss_base() - mf=0x7f07e1e1cbb0
l1_cache::rd_miss_base() - mf=0x7f07e1e1cbb0
l1_cache::send_read_request_2() - mf=0x7f07e1e1cbb0
ldst_unit::memory_cycle() - mf=0x7f07e1e1dcf0
TAG STORE PROBE
	addr=2147493344
	block_addr=2147493248
	tag=2147493248
	idx=86 T_HIT
ldst_unit::l1d_process_memory_access_queue() - mf=0x7f07e1e1dcf0
l1_cache::access() - mf=0x7f07e1e1dcf0
l1_cache::process_tag_probe() - mf=0x7f07e1e1dcf0
l1_cache::rd_miss_base() - mf=0x7f07e1e1dcf0
l1_cache::rd_miss_base() - mf=0x7f07e1e1dcf0
l1_cache::send_read_request_2() - mf=0x7f07e1e1dcf0
ldst_unit::writeback() - m_next_global_block_addr=2147487872
ldst_unit::cycle() - mf=0x7f07e183fba0
TAG STORE PROBE
	addr=2147504384
	block_addr=2147504384
	tag=2147504384
	idx=7 T_HIT
In TS, but rc <=2
peek result - 2
ldst_unit::memory_cycle() - mf=0x7f07e1e1ea10
TAG STORE PROBE
	addr=2147503232
	block_addr=2147503232
	tag=2147503232
	idx=222 T_HIT
ldst_unit::l1d_process_memory_access_queue() - mf=0x7f07e1e1ea10
l1_cache::access() - mf=0x7f07e1e1ea10
l1_cache::process_tag_probe() - mf=0x7f07e1e1ea10
l1_cache::rd_miss_base() - mf=0x7f07e1e1ea10
l1_cache::rd_miss_base() - mf=0x7f07e1e1ea10
l1_cache::send_read_request_2() - mf=0x7f07e1e1ea10
ldst_unit::cycle() - mf=0x7f07e14c3f20
TAG STORE PROBE
	addr=2147496320
	block_addr=2147496320
	tag=2147496320
	idx=23 T_HIT
In TS, but rc <=2
peek result - 2
ldst_unit::memory_cycle() - mf=0x7f07e1e1ea10
TAG STORE PROBE
	addr=2147487616
	block_addr=2147487616
	tag=2147487616
	idx=253 T_HIT
ldst_unit::l1d_process_memory_access_queue() - mf=0x7f07e1e1ea10
l1_cache::access() - mf=0x7f07e1e1ea10
l1_cache::process_tag_probe() - mf=0x7f07e1e1ea10
l1_cache::rd_miss_base() - mf=0x7f07e1e1ea10
l1_cache::rd_miss_base() - mf=0x7f07e1e1ea10
l1_cache::send_read_request_2() - mf=0x7f07e1e1ea10
ldst_unit::memory_cycle() - mf=0x7f07e1e1e970
TAG STORE PROBE
	addr=2147493728
	block_addr=2147493632
	tag=2147493632
	idx=124 T_HIT
ldst_unit::l1d_process_memory_access_queue() - mf=0x7f07e1e1e970
l1_cache::access() - mf=0x7f07e1e1e970
l1_cache::process_tag_probe() - mf=0x7f07e1e1e970
l1_cache::rd_miss_base() - mf=0x7f07e1e1e970
l1_cache::rd_miss_base() - mf=0x7f07e1e1e970
l1_cache::send_read_request_2() - mf=0x7f07e1e1e970
ldst_unit::memory_cycle() - mf=0x7f07e1e1e970
TAG STORE PROBE
	addr=2147501952
	block_addr=2147501952
	tag=2147501952
	idx=110 T_HIT
ldst_unit::l1d_process_memory_access_queue() - mf=0x7f07e1e1e970
l1_cache::access() - mf=0x7f07e1e1e970
l1_cache::process_tag_probe() - mf=0x7f07e1e1e970
l1_cache::rd_miss_base() - mf=0x7f07e1e1e970
l1_cache::rd_miss_base() - mf=0x7f07e1e1e970
l1_cache::send_read_request_2() - mf=0x7f07e1e1e970
ldst_unit::memory_cycle() - mf=0x7f07e1e1e970
TAG STORE PROBE
	addr=2147511552
	block_addr=2147511552
	tag=2147511552
	idx=207 T_HIT
ldst_unit::l1d_process_memory_access_queue() - mf=0x7f07e1e1e970
l1_cache::access() - mf=0x7f07e1e1e970
l1_cache::process_tag_probe() - mf=0x7f07e1e1e970
l1_cache::rd_miss_base() - mf=0x7f07e1e1e970
l1_cache::rd_miss_base() - mf=0x7f07e1e1e970
l1_cache::send_read_request_2() - mf=0x7f07e1e1e970
ldst_unit::memory_cycle() - mf=0x7f07e1e1ebc0
TAG STORE PROBE
	addr=2147501440
	block_addr=2147501440
	tag=2147501440
	idx=78 T_HIT
ldst_unit::l1d_process_memory_access_queue() - mf=0x7f07e1e1ebc0
l1_cache::access() - mf=0x7f07e1e1ebc0
l1_cache::process_tag_probe() - mf=0x7f07e1e1ebc0
l1_cache::rd_miss_base() - mf=0x7f07e1e1ebc0
l1_cache::rd_miss_base() - mf=0x7f07e1e1ebc0
l1_cache::send_read_request_2() - mf=0x7f07e1e1ebc0
ldst_unit::cycle() - mf=0x7f07e14f99f0
TAG STORE PROBE
	addr=2147485760
	block_addr=2147485696
	tag=2147485696
	idx=132 T_HIT
In TS, but rc <=2
peek result - 2
ldst_unit::memory_cycle() - mf=0x7f07e1e1ebc0
TAG STORE PROBE
	addr=2147493344
	block_addr=2147493248
	tag=2147493248
	idx=86 T_HIT
ldst_unit::l1d_process_memory_access_queue() - mf=0x7f07e1e1ebc0
l1_cache::access() - mf=0x7f07e1e1ebc0
l1_cache::process_tag_probe() - mf=0x7f07e1e1ebc0
l1_cache::rd_miss_base() - mf=0x7f07e1e1ebc0
l1_cache::rd_miss_base() - mf=0x7f07e1e1ebc0
l1_cache::send_read_request_2() - mf=0x7f07e1e1ebc0
ldst_unit::writeback() - m_next_global_block_addr=2147504384
ldst_unit::memory_cycle() - mf=0x7f07e183fba0
TAG STORE PROBE
	addr=2147503232
	block_addr=2147503232
	tag=2147503232
	idx=222 T_HIT
ldst_unit::l1d_process_memory_access_queue() - mf=0x7f07e183fba0
l1_cache::access() - mf=0x7f07e183fba0
l1_cache::process_tag_probe() - mf=0x7f07e183fba0
l1_cache::rd_miss_base() - mf=0x7f07e183fba0
l1_cache::rd_miss_base() - mf=0x7f07e183fba0
l1_cache::send_read_request_2() - mf=0x7f07e183fba0
ldst_unit::writeback() - m_next_global_block_addr=2147496320
ldst_unit::memory_cycle() - mf=0x7f07e183fba0
TAG STORE PROBE
	addr=2147487616
	block_addr=2147487616
	tag=2147487616
	idx=253 T_HIT
ldst_unit::l1d_process_memory_access_queue() - mf=0x7f07e183fba0
l1_cache::access() - mf=0x7f07e183fba0
l1_cache::process_tag_probe() - mf=0x7f07e183fba0
l1_cache::rd_miss_base() - mf=0x7f07e183fba0
l1_cache::rd_miss_base() - mf=0x7f07e183fba0
l1_cache::send_read_request_2() - mf=0x7f07e183fba0
ldst_unit::memory_cycle() - mf=0x7f07e183fba0
TAG STORE PROBE
	addr=2147493728
	block_addr=2147493632
	tag=2147493632
	idx=124 T_HIT
ldst_unit::l1d_process_memory_access_queue() - mf=0x7f07e183fba0
l1_cache::access() - mf=0x7f07e183fba0
l1_cache::process_tag_probe() - mf=0x7f07e183fba0
l1_cache::rd_miss_base() - mf=0x7f07e183fba0
l1_cache::rd_miss_base() - mf=0x7f07e183fba0
l1_cache::send_read_request_2() - mf=0x7f07e183fba0
ldst_unit::memory_cycle() - mf=0x7f07e183fba0
TAG STORE PROBE
	addr=2147501952
	block_addr=2147501952
	tag=2147501952
	idx=110 T_HIT
ldst_unit::l1d_process_memory_access_queue() - mf=0x7f07e183fba0
l1_cache::access() - mf=0x7f07e183fba0
l1_cache::process_tag_probe() - mf=0x7f07e183fba0
l1_cache::rd_miss_base() - mf=0x7f07e183fba0
l1_cache::rd_miss_base() - mf=0x7f07e183fba0
l1_cache::send_read_request_2() - mf=0x7f07e183fba0
ldst_unit::memory_cycle() - mf=0x7f07e14c3f00
TAG STORE PROBE
	addr=2147511552
	block_addr=2147511552
	tag=2147511552
	idx=207 T_HIT
ldst_unit::l1d_process_memory_access_queue() - mf=0x7f07e14c3f00
l1_cache::access() - mf=0x7f07e14c3f00
l1_cache::process_tag_probe() - mf=0x7f07e14c3f00
l1_cache::rd_miss_base() - mf=0x7f07e14c3f00
l1_cache::rd_miss_base() - mf=0x7f07e14c3f00
l1_cache::send_read_request_2() - mf=0x7f07e14c3f00
ldst_unit::memory_cycle() - mf=0x7f07e14c4a10
TAG STORE PROBE
	addr=2147501440
	block_addr=2147501440
	tag=2147501440
	idx=78 T_HIT
ldst_unit::l1d_process_memory_access_queue() - mf=0x7f07e14c4a10
l1_cache::access() - mf=0x7f07e14c4a10
l1_cache::process_tag_probe() - mf=0x7f07e14c4a10
l1_cache::rd_miss_base() - mf=0x7f07e14c4a10
l1_cache::rd_miss_base() - mf=0x7f07e14c4a10
l1_cache::send_read_request_2() - mf=0x7f07e14c4a10
ldst_unit::writeback() - m_next_global_block_addr=2147485696
ldst_unit::memory_cycle() - mf=0x7f07e14c4a10
TAG STORE PROBE
	addr=2147493344
	block_addr=2147493248
	tag=2147493248
	idx=86 T_HIT
ldst_unit::l1d_process_memory_access_queue() - mf=0x7f07e14c4a10
l1_cache::access() - mf=0x7f07e14c4a10
l1_cache::process_tag_probe() - mf=0x7f07e14c4a10
l1_cache::rd_miss_base() - mf=0x7f07e14c4a10
l1_cache::rd_miss_base() - mf=0x7f07e14c4a10
l1_cache::send_read_request_2() - mf=0x7f07e14c4a10
ldst_unit::memory_cycle() - mf=0x7f07e14fa500
TAG STORE PROBE
	addr=2147503232
	block_addr=2147503232
	tag=2147503232
	idx=222 T_HIT
ldst_unit::l1d_process_memory_access_queue() - mf=0x7f07e14fa500
l1_cache::access() - mf=0x7f07e14fa500
l1_cache::process_tag_probe() - mf=0x7f07e14fa500
l1_cache::rd_miss_base() - mf=0x7f07e14fa500
l1_cache::rd_miss_base() - mf=0x7f07e14fa500
l1_cache::send_read_request_2() - mf=0x7f07e14fa500
ldst_unit::memory_cycle() - mf=0x7f07e14fa500
TAG STORE PROBE
	addr=2147487616
	block_addr=2147487616
	tag=2147487616
	idx=253 T_HIT
ldst_unit::l1d_process_memory_access_queue() - mf=0x7f07e14fa500
l1_cache::access() - mf=0x7f07e14fa500
l1_cache::process_tag_probe() - mf=0x7f07e14fa500
l1_cache::rd_miss_base() - mf=0x7f07e14fa500
l1_cache::rd_miss_base() - mf=0x7f07e14fa500
l1_cache::send_read_request_2() - mf=0x7f07e14fa500
ldst_unit::memory_cycle() - mf=0x7f07e14fa500
TAG STORE PROBE
	addr=2147493728
	block_addr=2147493632
	tag=2147493632
	idx=124 T_HIT
ldst_unit::l1d_process_memory_access_queue() - mf=0x7f07e14fa500
l1_cache::access() - mf=0x7f07e14fa500
l1_cache::process_tag_probe() - mf=0x7f07e14fa500
l1_cache::rd_miss_base() - mf=0x7f07e14fa500
l1_cache::rd_miss_base() - mf=0x7f07e14fa500
l1_cache::send_read_request_2() - mf=0x7f07e14fa500
ldst_unit::memory_cycle() - mf=0x7f07e14fa500
TAG STORE PROBE
	addr=2147501952
	block_addr=2147501952
	tag=2147501952
	idx=110 T_HIT
ldst_unit::l1d_process_memory_access_queue() - mf=0x7f07e14fa500
l1_cache::access() - mf=0x7f07e14fa500
l1_cache::process_tag_probe() - mf=0x7f07e14fa500
l1_cache::rd_miss_base() - mf=0x7f07e14fa500
l1_cache::rd_miss_base() - mf=0x7f07e14fa500
l1_cache::send_read_request_2() - mf=0x7f07e14fa500
ldst_unit::memory_cycle() - mf=0x7f07e14fa500
TAG STORE PROBE
	addr=2147511552
	block_addr=2147511552
	tag=2147511552
	idx=207 T_HIT
ldst_unit::l1d_process_memory_access_queue() - mf=0x7f07e14fa500
l1_cache::access() - mf=0x7f07e14fa500
l1_cache::process_tag_probe() - mf=0x7f07e14fa500
l1_cache::rd_miss_base() - mf=0x7f07e14fa500
l1_cache::rd_miss_base() - mf=0x7f07e14fa500
l1_cache::send_read_request_2() - mf=0x7f07e14fa500
ldst_unit::memory_cycle() - mf=0x7f07e14fa5c0
TAG STORE PROBE
	addr=2147501440
	block_addr=2147501440
	tag=2147501440
	idx=78 T_HIT
ldst_unit::l1d_process_memory_access_queue() - mf=0x7f07e14fa5c0
l1_cache::access() - mf=0x7f07e14fa5c0
l1_cache::process_tag_probe() - mf=0x7f07e14fa5c0
l1_cache::rd_miss_base() - mf=0x7f07e14fa5c0
l1_cache::rd_miss_base() - mf=0x7f07e14fa5c0
l1_cache::send_read_request_2() - mf=0x7f07e14fa5c0
ldst_unit::memory_cycle() - mf=0x7f07e14fa5c0
TAG STORE PROBE
	addr=2147493344
	block_addr=2147493248
	tag=2147493248
	idx=86 T_HIT
ldst_unit::l1d_process_memory_access_queue() - mf=0x7f07e14fa5c0
l1_cache::access() - mf=0x7f07e14fa5c0
l1_cache::process_tag_probe() - mf=0x7f07e14fa5c0
l1_cache::rd_miss_base() - mf=0x7f07e14fa5c0
l1_cache::rd_miss_base() - mf=0x7f07e14fa5c0
l1_cache::send_read_request_2() - mf=0x7f07e14fa5c0
ldst_unit::memory_cycle() - mf=0x7f07e14fa560
TAG STORE PROBE
	addr=2147503232
	block_addr=2147503232
	tag=2147503232
	idx=222 T_HIT
ldst_unit::l1d_process_memory_access_queue() - mf=0x7f07e14fa560
l1_cache::access() - mf=0x7f07e14fa560
l1_cache::process_tag_probe() - mf=0x7f07e14fa560
l1_cache::rd_miss_base() - mf=0x7f07e14fa560
l1_cache::rd_miss_base() - mf=0x7f07e14fa560
l1_cache::send_read_request_2() - mf=0x7f07e14fa560
ldst_unit::memory_cycle() - mf=0x7f07e14fa560
TAG STORE PROBE
	addr=2147487616
	block_addr=2147487616
	tag=2147487616
	idx=253 T_HIT
ldst_unit::l1d_process_memory_access_queue() - mf=0x7f07e14fa560
l1_cache::access() - mf=0x7f07e14fa560
l1_cache::process_tag_probe() - mf=0x7f07e14fa560
l1_cache::rd_miss_base() - mf=0x7f07e14fa560
l1_cache::rd_miss_base() - mf=0x7f07e14fa560
l1_cache::send_read_request_2() - mf=0x7f07e14fa560
ldst_unit::memory_cycle() - mf=0x7f07e14fa560
TAG STORE PROBE
	addr=2147493728
	block_addr=2147493632
	tag=2147493632
	idx=124 T_HIT
ldst_unit::l1d_process_memory_access_queue() - mf=0x7f07e14fa560
l1_cache::access() - mf=0x7f07e14fa560
l1_cache::process_tag_probe() - mf=0x7f07e14fa560
l1_cache::rd_miss_base() - mf=0x7f07e14fa560
l1_cache::rd_miss_base() - mf=0x7f07e14fa560
l1_cache::send_read_request_2() - mf=0x7f07e14fa560
ldst_unit::memory_cycle() - mf=0x7f07e14fa560
TAG STORE PROBE
	addr=2147501952
	block_addr=2147501952
	tag=2147501952
	idx=110 T_HIT
ldst_unit::l1d_process_memory_access_queue() - mf=0x7f07e14fa560
l1_cache::access() - mf=0x7f07e14fa560
l1_cache::process_tag_probe() - mf=0x7f07e14fa560
l1_cache::rd_miss_base() - mf=0x7f07e14fa560
l1_cache::rd_miss_base() - mf=0x7f07e14fa560
l1_cache::send_read_request_2() - mf=0x7f07e14fa560
ldst_unit::memory_cycle() - mf=0x7f07e1e205e0
TAG STORE PROBE
	addr=2147511552
	block_addr=2147511552
	tag=2147511552
	idx=207 T_HIT
ldst_unit::l1d_process_memory_access_queue() - mf=0x7f07e1e205e0
l1_cache::access() - mf=0x7f07e1e205e0
l1_cache::process_tag_probe() - mf=0x7f07e1e205e0
l1_cache::rd_miss_base() - mf=0x7f07e1e205e0
l1_cache::rd_miss_base() - mf=0x7f07e1e205e0
l1_cache::send_read_request_2() - mf=0x7f07e1e205e0
ldst_unit::memory_cycle() - mf=0x7f07e1e20e20
TAG STORE PROBE
	addr=2147501440
	block_addr=2147501440
	tag=2147501440
	idx=78 T_HIT
ldst_unit::l1d_process_memory_access_queue() - mf=0x7f07e1e20e20
l1_cache::access() - mf=0x7f07e1e20e20
l1_cache::process_tag_probe() - mf=0x7f07e1e20e20
l1_cache::rd_miss_base() - mf=0x7f07e1e20e20
l1_cache::rd_miss_base() - mf=0x7f07e1e20e20
l1_cache::send_read_request_2() - mf=0x7f07e1e20e20
ldst_unit::memory_cycle() - mf=0x7f07e1e20e20
TAG STORE PROBE
	addr=2149595136
	block_addr=2149595136
	tag=2149595136
	idx is LFU
	idx=141 T_MISS
	tag_store->allocate() - tag_index=141
ldst_unit::memory_cycle() - mf=0x7f07e1e20e20 BYPASS
ldst_unit::memory_cycle() - mf=0x7f07e1e21b20
TAG STORE PROBE
	addr=2147493344
	block_addr=2147493248
	tag=2147493248
	idx=86 T_HIT
ldst_unit::l1d_process_memory_access_queue() - mf=0x7f07e1e21b20
l1_cache::access() - mf=0x7f07e1e21b20
l1_cache::process_tag_probe() - mf=0x7f07e1e21b20
l1_cache::rd_miss_base() - mf=0x7f07e1e21b20
l1_cache::rd_miss_base() - mf=0x7f07e1e21b20
l1_cache::send_read_request_2() - mf=0x7f07e1e21b20
ldst_unit::cycle() - mf=0x7f07e183fe10
TAG STORE PROBE
	addr=2147504384
	block_addr=2147504384
	tag=2147504384
	idx=6 T_HIT
RC = 3
peek result - 1
l1_cache::fill() - mf=0x7f07e183fe10
