

        *** GPGPU-Sim Simulator Version 3.2.2  [build 0] ***


GPGPU-Sim PTX: simulation mode 0 (can change with PTX_SIM_MODE_FUNC environment variable:
               1=functional simulation only, 0=detailed performance simulator)
GPGPU-Sim: Configuration options:

-network_mode                           1 # Interconnection network mode
-inter_config_file   config_fermi_islip.icnt # Interconnection network config file
-gpgpu_ptx_use_cuobjdump                    1 # Use cuobjdump to extract ptx and sass from binaries
-gpgpu_experimental_lib_support                    0 # Try to extract code from cuda libraries [Broken because of unknown cudaGetExportTable]
-gpgpu_ptx_convert_to_ptxplus                    0 # Convert SASS (native ISA) to ptxplus and run ptxplus
-gpgpu_ptx_force_max_capability                   20 # Force maximum compute capability
-gpgpu_ptx_inst_debug_to_file                    0 # Dump executed instructions' debug information to file
-gpgpu_ptx_inst_debug_file       inst_debug.txt # Executed instructions' debug output file
-gpgpu_ptx_inst_debug_thread_uid                    1 # Thread UID for executed instructions' debug output
-gpgpu_simd_model                       1 # 1 = post-dominator
-gpgpu_shader_core_pipeline              1536:32 # shader core pipeline config, i.e., {<nthread>:<warpsize>}
-gpgpu_tex_cache:l1  4:128:24,L:R:m:N:L,F:128:4,128:2 # per-shader L1 texture cache  (READ-ONLY) config  {<nsets>:<bsize>:<assoc>,<rep>:<wr>:<alloc>:<wr_alloc>,<mshr>:<N>:<merge>,<mq>:<rf>}
-gpgpu_const_cache:l1 64:64:2,L:R:f:N:L,A:2:32,4 # per-shader L1 constant memory cache  (READ-ONLY) config  {<nsets>:<bsize>:<assoc>,<rep>:<wr>:<alloc>:<wr_alloc>,<mshr>:<N>:<merge>,<mq>} 
-gpgpu_cache:il1     4:128:4,L:R:f:N:L,A:2:32,4 # shader L1 instruction cache config  {<nsets>:<bsize>:<assoc>,<rep>:<wr>:<alloc>:<wr_alloc>,<mshr>:<N>:<merge>,<mq>} 
-gpgpu_cache:dl1     32:128:4,L:L:m:N:H,A:32:8,8 # per-shader L1 data cache config  {<nsets>:<bsize>:<assoc>,<rep>:<wr>:<alloc>:<wr_alloc>,<mshr>:<N>:<merge>,<mq> | none}
-gpgpu_cache:dl1PrefL1                 none # per-shader L1 data cache config  {<nsets>:<bsize>:<assoc>,<rep>:<wr>:<alloc>:<wr_alloc>,<mshr>:<N>:<merge>,<mq> | none}
-gpgpu_cache:dl1PreShared                 none # per-shader L1 data cache config  {<nsets>:<bsize>:<assoc>,<rep>:<wr>:<alloc>:<wr_alloc>,<mshr>:<N>:<merge>,<mq> | none}
-gmem_skip_L1D                          0 # global memory access skip L1D cache (implements -Xptxas -dlcm=cg, default=no skip)
-gpgpu_perfect_mem                      0 # enable perfect memory mode (no cache miss)
-n_regfile_gating_group                    4 # group of lanes that should be read/written together)
-gpgpu_clock_gated_reg_file                    0 # enable clock gated reg file for power calculations
-gpgpu_clock_gated_lanes                    0 # enable clock gated lanes for power calculations
-gpgpu_shader_registers                32768 # Number of registers per shader core. Limits number of concurrent CTAs. (default 8192)
-gpgpu_shader_cta                       8 # Maximum number of concurrent CTAs in shader (default 8)
-gpgpu_num_cta_barriers                   16 # Maximum number of named barriers per CTA (default 16)
-gpgpu_n_clusters                      15 # number of processing clusters
-gpgpu_n_cores_per_cluster                    1 # number of simd cores per cluster
-gpgpu_n_cluster_ejection_buffer_size                    8 # number of packets in ejection buffer
-gpgpu_n_ldst_response_buffer_size                    2 # number of response packets in ld/st unit ejection buffer
-gpgpu_shmem_size                   16384 # Size of shared memory per shader core (default 16kB)
-gpgpu_shmem_size                   49152 # Size of shared memory per shader core (default 16kB)
-gpgpu_shmem_size_PrefL1                16384 # Size of shared memory per shader core (default 16kB)
-gpgpu_shmem_size_PrefShared                16384 # Size of shared memory per shader core (default 16kB)
-gpgpu_shmem_num_banks                   32 # Number of banks in the shared memory in each shader core (default 16)
-gpgpu_shmem_limited_broadcast                    0 # Limit shared memory to do one broadcast per cycle (default on)
-gpgpu_shmem_warp_parts                    1 # Number of portions a warp is divided into for shared memory bank conflict check 
-gpgpu_warpdistro_shader                   -1 # Specify which shader core to collect the warp size distribution from
-gpgpu_warp_issue_shader                    0 # Specify which shader core to collect the warp issue distribution from
-gpgpu_local_mem_map                    1 # Mapping from local memory space address to simulated GPU physical address space (default = enabled)
-gpgpu_num_reg_banks                   16 # Number of register banks (default = 8)
-gpgpu_reg_bank_use_warp_id                    0 # Use warp ID in mapping registers to banks (default = off)
-gpgpu_operand_collector_num_units_sp                    6 # number of collector units (default = 4)
-gpgpu_operand_collector_num_units_sfu                    8 # number of collector units (default = 4)
-gpgpu_operand_collector_num_units_mem                    2 # number of collector units (default = 2)
-gpgpu_operand_collector_num_units_gen                    0 # number of collector units (default = 0)
-gpgpu_operand_collector_num_in_ports_sp                    2 # number of collector unit in ports (default = 1)
-gpgpu_operand_collector_num_in_ports_sfu                    1 # number of collector unit in ports (default = 1)
-gpgpu_operand_collector_num_in_ports_mem                    1 # number of collector unit in ports (default = 1)
-gpgpu_operand_collector_num_in_ports_gen                    0 # number of collector unit in ports (default = 0)
-gpgpu_operand_collector_num_out_ports_sp                    2 # number of collector unit in ports (default = 1)
-gpgpu_operand_collector_num_out_ports_sfu                    1 # number of collector unit in ports (default = 1)
-gpgpu_operand_collector_num_out_ports_mem                    1 # number of collector unit in ports (default = 1)
-gpgpu_operand_collector_num_out_ports_gen                    0 # number of collector unit in ports (default = 0)
-gpgpu_coalesce_arch                   13 # Coalescing arch (default = 13, anything else is off for now)
-gpgpu_num_sched_per_core                    2 # Number of warp schedulers per core
-gpgpu_max_insn_issue_per_warp                    1 # Max number of instructions that can be issued per warp in one cycle by scheduler
-gpgpu_simt_core_sim_order                    1 # Select the simulation order of cores in a cluster (0=Fix, 1=Round-Robin)
-gpgpu_pipeline_widths        2,1,1,2,1,1,2 # Pipeline widths ID_OC_SP,ID_OC_SFU,ID_OC_MEM,OC_EX_SP,OC_EX_SFU,OC_EX_MEM,EX_WB
-gpgpu_num_sp_units                     2 # Number of SP units (default=1)
-gpgpu_num_sfu_units                    1 # Number of SF units (default=1)
-gpgpu_num_mem_units                    1 # Number if ldst units (default=1) WARNING: not hooked up to anything
-gpgpu_scheduler                      gto # Scheduler configuration: < lrr | gto | two_level_active > If two_level_active:<num_active_warps>:<inner_prioritization>:<outer_prioritization>For complete list of prioritization values see shader.h enum scheduler_prioritization_typeDefault: gto
-gpgpu_dram_scheduler                    1 # 0 = fifo, 1 = FR-FCFS (defaul)
-gpgpu_dram_partition_queues              8:8:8:8 # i2$:$2d:d2$:$2i
-l2_ideal                               0 # Use a ideal L2 cache that always hit
-gpgpu_cache:dl2     64:128:8,L:B:m:W:L,A:32:4,4:0,32 # unified banked L2 data cache config  {<nsets>:<bsize>:<assoc>,<rep>:<wr>:<alloc>:<wr_alloc>,<mshr>:<N>:<merge>,<mq>}
-gpgpu_cache:dl2_texture_only                    0 # L2 cache used for texture only
-gpgpu_n_mem                            6 # number of memory modules (e.g. memory controllers) in gpu
-gpgpu_n_sub_partition_per_mchannel                    2 # number of memory subpartition in each memory module
-gpgpu_n_mem_per_ctrlr                    2 # number of memory chips per memory controller
-gpgpu_memlatency_stat                   14 # track and display latency statistics 0x2 enables MC, 0x4 enables queue logs
-gpgpu_frfcfs_dram_sched_queue_size                   16 # 0 = unlimited (default); # entries per chip
-gpgpu_dram_return_queue_size                   84 # 0 = unlimited (default); # entries per chip
-gpgpu_dram_buswidth                    4 # default = 4 bytes (8 bytes per cycle at DDR)
-gpgpu_dram_burst_length                    8 # Burst length of each DRAM request (default = 4 data bus cycle)
-dram_data_command_freq_ratio                    4 # Frequency ratio between DRAM data bus and command bus (default = 2 times, i.e. DDR)
-gpgpu_dram_timing_opt nbk=16:CCD=2:RRD=6:RCD=12:RAS=28:RP=12:RC=40: CL=12:WL=4:CDLR=5:WR=12:nbkgrp=4:CCDL=3:RTPL=2 # DRAM timing parameters = {nbk:tCCD:tRRD:tRCD:tRAS:tRP:tRC:CL:WL:tCDLR:tWR:nbkgrp:tCCDL:tRTPL}
-rop_latency                          120 # ROP queue latency (default 85)
-dram_latency                         100 # DRAM latency (default 30)
-gpgpu_mem_addr_mapping dramid@8;00000000.00000000.00000000.00000000.0000RRRR.RRRRRRRR.BBBCCCCB.CCSSSSSS # mapping memory address to dram model {dramid@<start bit>;<memory address map>}
-gpgpu_mem_addr_test                    0 # run sweep test to check address mapping for aliased address
-gpgpu_mem_address_mask                    1 # 0 = old addressing mask, 1 = new addressing mask, 2 = new add. mask + flipped bank sel and chip sel bits
-gpuwattch_xml_file  gpuwattch_gtx480.xml # GPUWattch XML file
-power_simulation_enabled                    1 # Turn on power simulator (1=On, 0=Off)
-power_per_cycle_dump                    0 # Dump detailed power output each cycle
-power_trace_enabled                    0 # produce a file for the power trace (1=On, 0=Off)
-power_trace_zlevel                     6 # Compression level of the power trace output log (0=no comp, 9=highest)
-steady_power_levels_enabled                    0 # produce a file for the steady power levels (1=On, 0=Off)
-steady_state_definition                  8:4 # allowed deviation:number of samples
-gpgpu_max_cycle                        0 # terminates gpu simulation early (0 = no limit)
-gpgpu_max_insn                         0 # terminates gpu simulation early (0 = no limit)
-gpgpu_max_cta                          0 # terminates gpu simulation early (0 = no limit)
-gpgpu_runtime_stat                   500 # display runtime statistics such as dram utilization {<freq>:<flag>}
-liveness_message_freq                    1 # Minimum number of seconds between simulation liveness messages (0 = always print)
-gpgpu_flush_l1_cache                    0 # Flush L1 cache at the end of each kernel call
-gpgpu_flush_l2_cache                    0 # Flush L2 cache at the end of each kernel call
-gpgpu_deadlock_detect                    1 # Stop the simulation at deadlock (1=on (default), 0=off)
-gpgpu_ptx_instruction_classification                    0 # if enabled will classify ptx instruction types per kernel (Max 255 kernels now)
-gpgpu_ptx_sim_mode                     0 # Select between Performance (default) or Functional simulation (1)
-gpgpu_clock_domains 700.0:700.0:700.0:700.0 # Clock Domain Frequencies in MhZ {<Core Clock>:<ICNT Clock>:<L2 Clock>:<DRAM Clock>}
-gpgpu_max_concurrent_kernel                    8 # maximum kernels that can run concurrently on GPU
-gpgpu_cflog_interval                    0 # Interval between each snapshot in control flow logger
-visualizer_enabled                     0 # Turn on visualizer output (1=On, 0=Off)
-visualizer_outputfile                 NULL # Specifies the output log file for visualizer
-visualizer_zlevel                      6 # Compression level of the visualizer output log (0=no comp, 9=highest)
-trace_enabled                          0 # Turn on traces
-trace_components                    none # comma seperated list of traces to enable. Complete list found in trace_streams.tup. Default none
-trace_sampling_core                    0 # The core which is printed using CORE_DPRINTF. Default 0
-trace_sampling_memory_partition                   -1 # The memory partition which is printed using MEMPART_DPRINTF. Default -1 (i.e. all)
-enable_ptx_file_line_stats                    1 # Turn on PTX source line statistic profiling. (1 = On)
-ptx_line_stats_filename gpgpu_inst_stats.txt # Output file for PTX source line statistics.
-save_embedded_ptx                      0 # saves ptx files embedded in binary as <n>.ptx
-keep                                   0 # keep intermediate files created by GPGPU-Sim when interfacing with external programs
-gpgpu_ptx_save_converted_ptxplus                    0 # Saved converted ptxplus to a file
-ptx_opcode_latency_int         4,13,4,5,145 # Opcode latencies for integers <ADD,MAX,MUL,MAD,DIV>Default 1,1,19,25,145
-ptx_opcode_latency_fp          4,13,4,5,39 # Opcode latencies for single precision floating points <ADD,MAX,MUL,MAD,DIV>Default 1,1,1,1,30
-ptx_opcode_latency_dp         8,19,8,8,330 # Opcode latencies for double precision floating points <ADD,MAX,MUL,MAD,DIV>Default 8,8,8,8,335
-ptx_opcode_initiation_int            1,2,2,1,8 # Opcode initiation intervals for integers <ADD,MAX,MUL,MAD,DIV>Default 1,1,4,4,32
-ptx_opcode_initiation_fp            1,2,1,1,4 # Opcode initiation intervals for single precision floating points <ADD,MAX,MUL,MAD,DIV>Default 1,1,1,1,5
-ptx_opcode_initiation_dp         8,16,8,8,130 # Opcode initiation intervals for double precision floating points <ADD,MAX,MUL,MAD,DIV>Default 8,8,8,8,130
DRAM Timing Options:
nbk                                    16 # number of banks
CCD                                     2 # column to column delay
RRD                                     6 # minimal delay between activation of rows in different banks
RCD                                    12 # row to column delay
RAS                                    28 # time needed to activate row
RP                                     12 # time needed to precharge (deactivate) row
RC                                     40 # row cycle time
CDLR                                    5 # switching from write to read (changes tWTR)
WR                                     12 # last data-in to row precharge
CL                                     12 # CAS latency
WL                                      4 # Write latency
nbkgrp                                  4 # number of bank groups
CCDL                                    3 # column to column delay between accesses to different bank groups
RTPL                                    2 # read to precharge delay between accesses to different bank groups
Total number of memory sub partition = 12
addr_dec_mask[CHIP]  = 0000000000000000 	high:64 low:0
addr_dec_mask[BK]    = 000000000000e100 	high:16 low:8
addr_dec_mask[ROW]   = 000000000fff0000 	high:28 low:16
addr_dec_mask[COL]   = 0000000000001eff 	high:13 low:0
addr_dec_mask[BURST] = 000000000000003f 	high:6 low:0
sub_partition_id_mask = 0000000000000100
GPGPU-Sim uArch: clock freqs: 700000000.000000:700000000.000000:700000000.000000:700000000.000000
GPGPU-Sim uArch: clock periods: 0.00000000142857142857:0.00000000142857142857:0.00000000142857142857:0.00000000142857142857
*** Initializing Memory Statistics ***
GPGPU-Sim uArch: interconnect node map (shaderID+MemID to icntID)
GPGPU-Sim uArch: Memory nodes ID start from index: 15
GPGPU-Sim uArch:    0   1   2   3   4
GPGPU-Sim uArch:    5   6   7   8   9
GPGPU-Sim uArch:   10  11  12  13  14
GPGPU-Sim uArch:   15  16  17  18  19
GPGPU-Sim uArch:   20  21  22  23  24
GPGPU-Sim uArch:   25  26
GPGPU-Sim uArch: interconnect node reverse map (icntID to shaderID+MemID)
GPGPU-Sim uArch: Memory nodes start from ID: 15
GPGPU-Sim uArch:    0   1   2   3   4
GPGPU-Sim uArch:    5   6   7   8   9
GPGPU-Sim uArch:   10  11  12  13  14
GPGPU-Sim uArch:   15  16  17  18  19
GPGPU-Sim uArch:   20  21  22  23  24
GPGPU-Sim uArch:   25  26
20ca3b5bfeb128b0910ff77bfd9979fb  /home/gpgpu-sim/Documents/Dynamic_GPU_Cache_Bypass_Project/benchmarks/test/hotspot-rodinia-3.1
GPGPU-Sim uArch: performance model initialization complete.
GPGPU-Sim PTX: __cudaRegisterFatBinary, fat_cubin_handle = 1, filename=hotspot.cu
self exe links to: /home/gpgpu-sim/Documents/Dynamic_GPU_Cache_Bypass_Project/benchmarks/test/hotspot-rodinia-3.1
Running md5sum using "md5sum /home/gpgpu-sim/Documents/Dynamic_GPU_Cache_Bypass_Project/benchmarks/test/hotspot-rodinia-3.1 "
Running cuobjdump using "$CUDA_INSTALL_PATH/bin/cuobjdump -ptx -elf -sass /home/gpgpu-sim/Documents/Dynamic_GPU_Cache_Bypass_Project/benchmarks/test/hotspot-rodinia-3.1 > _cuobjdump_complete_output_PWvcvx"
Parsing file _cuobjdump_complete_output_PWvcvx
######### cuobjdump parser ########
## Adding new section ELF
Adding arch: sm_30
Adding identifier: hotspot.cu
## Adding new section PTX
Adding ptx filename: _cuobjdump_1.ptx
Adding arch: sm_30
Adding identifier: hotspot.cu
## Adding new section ELF
Adding arch: sm_13
Adding identifier: hotspot.cu
## Adding new section PTX
Adding ptx filename: _cuobjdump_2.ptx
Adding arch: sm_13
Adding identifier: hotspot.cu
## Adding new section ELF
Adding arch: sm_20
Adding identifier: hotspot.cu
## Adding new section PTX
Adding ptx filename: _cuobjdump_3.ptx
Adding arch: sm_20
Adding identifier: hotspot.cu
## Adding new section ELF
Adding arch: sm_10
Adding identifier: hotspot.cu
## Adding new section PTX
Adding ptx filename: _cuobjdump_4.ptx
Adding arch: sm_10
Adding identifier: hotspot.cu
Done parsing!!!
GPGPU-Sim PTX: __cudaRegisterFunction _Z14calculate_tempiPfS_S_iiiiffffff : hostFun 0x0x401390, fat_cubin_handle = 1
GPGPU-Sim PTX: allocating shared region for "__cuda_local_var_17095_39_non_const_temp_on_cuda" from 0x0 to 0x400 (shared memory space)
GPGPU-Sim PTX: allocating shared region for "__cuda_local_var_17096_39_non_const_power_on_cuda" from 0x400 to 0x800 (shared memory space)
GPGPU-Sim PTX: allocating shared region for "__cuda_local_var_17097_39_non_const_temp_t" from 0x800 to 0xc00 (shared memory space)
GPGPU-Sim PTX: Warning %temp1 was declared previous at _1.ptx:350 skipping new declaration
GPGPU-Sim PTX: Warning %temp2 was declared previous at _1.ptx:351 skipping new declaration
GPGPU-Sim PTX: instruction assembly for function '_Z14calculate_tempiPfS_S_iiiiffffff'...   done.
GPGPU-Sim PTX: finding reconvergence points for '_Z14calculate_tempiPfS_S_iiiiffffff'...
GPGPU-Sim PTX: Finding dominators for '_Z14calculate_tempiPfS_S_iiiiffffff'...
GPGPU-Sim PTX: Finding immediate dominators for '_Z14calculate_tempiPfS_S_iiiiffffff'...
GPGPU-Sim PTX: Finding postdominators for '_Z14calculate_tempiPfS_S_iiiiffffff'...
GPGPU-Sim PTX: Finding immediate postdominators for '_Z14calculate_tempiPfS_S_iiiiffffff'...
GPGPU-Sim PTX: pre-decoding instructions for '_Z14calculate_tempiPfS_S_iiiiffffff'...
GPGPU-Sim PTX: reconvergence points for _Z14calculate_tempiPfS_S_iiiiffffff...
GPGPU-Sim PTX:  1 (potential) branch divergence @  PC=0x110 (_1.ptx:99) @!%p3 bra BB0_3;
GPGPU-Sim PTX:    immediate post dominator      @  PC=0x238 (_1.ptx:155) bar.sync 0;
GPGPU-Sim PTX:  2 (potential) branch divergence @  PC=0x188 (_1.ptx:123) @!%p6 bra BB0_3;
GPGPU-Sim PTX:    immediate post dominator      @  PC=0x238 (_1.ptx:155) bar.sync 0;
GPGPU-Sim PTX:  3 (potential) branch divergence @  PC=0x3e0 (_1.ptx:223) @%p9 bra BB0_5;
GPGPU-Sim PTX:    immediate post dominator      @  PC=0x760 (_1.ptx:381) cvt.s16.s8 %temp1, %rc7;
GPGPU-Sim PTX:  4 (potential) branch divergence @  PC=0x3e8 (_1.ptx:224) bra.uni BB0_13;
GPGPU-Sim PTX:    immediate post dominator      @  PC=0x760 (_1.ptx:381) cvt.s16.s8 %temp1, %rc7;
GPGPU-Sim PTX:  5 (potential) branch divergence @  PC=0x420 (_1.ptx:236) @!%p12 bra BB0_8;
GPGPU-Sim PTX:    immediate post dominator      @  PC=0x6b0 (_1.ptx:341) bar.sync 0;
GPGPU-Sim PTX:  6 (potential) branch divergence @  PC=0x578 (_1.ptx:292) @%p25 bra BB0_8;
GPGPU-Sim PTX:    immediate post dominator      @  PC=0x6b0 (_1.ptx:341) bar.sync 0;
GPGPU-Sim PTX:  7 (potential) branch divergence @  PC=0x6a0 (_1.ptx:334) bra.uni BB0_9;
GPGPU-Sim PTX:    immediate post dominator      @  PC=0x6b0 (_1.ptx:341) bar.sync 0;
GPGPU-Sim PTX:  8 (potential) branch divergence @  PC=0x6d0 (_1.ptx:346) @%p26 bra BB0_13;
GPGPU-Sim PTX:    immediate post dominator      @  PC=0x760 (_1.ptx:381) cvt.s16.s8 %temp1, %rc7;
GPGPU-Sim PTX:  9 (potential) branch divergence @  PC=0x6f8 (_1.ptx:357) @%p27 bra BB0_12;
GPGPU-Sim PTX:    immediate post dominator      @  PC=0x748 (_1.ptx:372) bar.sync 0;
GPGPU-Sim PTX: 10 (potential) branch divergence @  PC=0x758 (_1.ptx:374) bra.uni BB0_4;
GPGPU-Sim PTX:    immediate post dominator      @  PC=0x3c8 (_1.ptx:219) mov.u32 %r11, %r159;
GPGPU-Sim PTX: 11 (potential) branch divergence @  PC=0x780 (_1.ptx:386) @%p28 bra BB0_15;
GPGPU-Sim PTX:    immediate post dominator      @  PC=0x868 (_1.ptx:432) ret;
GPGPU-Sim PTX: ... end of reconvergence points for _Z14calculate_tempiPfS_S_iiiiffffff
GPGPU-Sim PTX: ... done pre-decoding instructions for '_Z14calculate_tempiPfS_S_iiiiffffff'.
GPGPU-Sim PTX: finished parsing EMBEDDED .ptx file _1.ptx
Adding _cuobjdump_3.ptx with cubin handle 1
GPGPU-Sim PTX: extracting embedded .ptx to temporary file "_ptx_imTr59"
Running: cat _ptx_imTr59 | sed 's/.version 1.5/.version 1.4/' | sed 's/, texmode_independent//' | sed 's/\(\.extern \.const\[1\] .b8 \w\+\)\[\]/\1\[1\]/' | sed 's/const\[.\]/const\[0\]/g' > _ptx2_s9SKFM
GPGPU-Sim PTX: generating ptxinfo using "$CUDA_INSTALL_PATH/bin/ptxas --gpu-name=sm_20 -v _ptx2_s9SKFM --output-file  /dev/null 2> _ptx_imTr59info"
GPGPU-Sim PTX: Kernel '_Z14calculate_tempiPfS_S_iiiiffffff' : regs=30, lmem=0, smem=3072, cmem=120
GPGPU-Sim PTX: removing ptxinfo using "rm -f _ptx_imTr59 _ptx2_s9SKFM _ptx_imTr59info"
GPGPU-Sim PTX: loading globals with explicit initializers... 
GPGPU-Sim PTX: finished loading globals (0 bytes total).
GPGPU-Sim PTX: loading constants with explicit initializers...  done.
WG size of kernel = 16 X 16
pyramidHeight: 2
gridSize: [512, 512]
border:[2, 2]
blockGrid:[43, 43]
targetBlock:[12, 12]
Start computing the transient temperature

GPGPU-Sim PTX: cudaLaunch for 0x0x401390 (mode=performance simulation) on stream 0
GPGPU-Sim PTX: pushing kernel '_Z14calculate_tempiPfS_S_iiiiffffff' to stream 0, gridDim= (43,43,1) blockDim = (16,16,1) 
kernel '_Z14calculate_tempiPfS_S_iiiiffffff' transfer to GPU hardware scheduler
GPGPU-Sim uArch: Shader 1 bind to kernel 1 '_Z14calculate_tempiPfS_S_iiiiffffff'
GPGPU-Sim uArch: CTA/core = 4, limited by: regs
GPGPU-Sim uArch: core:  1, cta: 0 initialized @(1,0)
GPGPU-Sim uArch: Shader 2 bind to kernel 1 '_Z14calculate_tempiPfS_S_iiiiffffff'
GPGPU-Sim uArch: core:  2, cta: 0 initialized @(1,0)
GPGPU-Sim uArch: Shader 3 bind to kernel 1 '_Z14calculate_tempiPfS_S_iiiiffffff'
GPGPU-Sim uArch: core:  3, cta: 0 initialized @(1,0)
GPGPU-Sim uArch: Shader 4 bind to kernel 1 '_Z14calculate_tempiPfS_S_iiiiffffff'
GPGPU-Sim uArch: core:  4, cta: 0 initialized @(1,0)
GPGPU-Sim uArch: Shader 5 bind to kernel 1 '_Z14calculate_tempiPfS_S_iiiiffffff'
GPGPU-Sim uArch: core:  5, cta: 0 initialized @(1,0)
GPGPU-Sim uArch: Shader 6 bind to kernel 1 '_Z14calculate_tempiPfS_S_iiiiffffff'
GPGPU-Sim uArch: core:  6, cta: 0 initialized @(1,0)
GPGPU-Sim uArch: Shader 7 bind to kernel 1 '_Z14calculate_tempiPfS_S_iiiiffffff'
GPGPU-Sim uArch: core:  7, cta: 0 initialized @(1,0)
GPGPU-Sim uArch: Shader 8 bind to kernel 1 '_Z14calculate_tempiPfS_S_iiiiffffff'
GPGPU-Sim uArch: core:  8, cta: 0 initialized @(1,0)
GPGPU-Sim uArch: Shader 9 bind to kernel 1 '_Z14calculate_tempiPfS_S_iiiiffffff'
GPGPU-Sim uArch: core:  9, cta: 0 initialized @(1,0)
GPGPU-Sim uArch: Shader 10 bind to kernel 1 '_Z14calculate_tempiPfS_S_iiiiffffff'
GPGPU-Sim uArch: core: 10, cta: 0 initialized @(1,0)
GPGPU-Sim uArch: Shader 11 bind to kernel 1 '_Z14calculate_tempiPfS_S_iiiiffffff'
GPGPU-Sim uArch: core: 11, cta: 0 initialized @(1,0)
GPGPU-Sim uArch: Shader 12 bind to kernel 1 '_Z14calculate_tempiPfS_S_iiiiffffff'
GPGPU-Sim uArch: core: 12, cta: 0 initialized @(1,0)
GPGPU-Sim uArch: Shader 13 bind to kernel 1 '_Z14calculate_tempiPfS_S_iiiiffffff'
GPGPU-Sim uArch: core: 13, cta: 0 initialized @(1,0)
GPGPU-Sim uArch: Shader 14 bind to kernel 1 '_Z14calculate_tempiPfS_S_iiiiffffff'
GPGPU-Sim uArch: core: 14, cta: 0 initialized @(1,0)
GPGPU-Sim uArch: Shader 0 bind to kernel 1 '_Z14calculate_tempiPfS_S_iiiiffffff'
GPGPU-Sim uArch: core:  0, cta: 0 initialized @(1,0)
GPGPU-Sim uArch: core:  1, cta: 1 initialized @(2,0)
GPGPU-Sim uArch: core:  2, cta: 1 initialized @(2,0)
GPGPU-Sim uArch: core:  3, cta: 1 initialized @(2,0)
GPGPU-Sim uArch: core:  4, cta: 1 initialized @(2,0)
GPGPU-Sim uArch: core:  5, cta: 1 initialized @(2,0)
GPGPU-Sim uArch: core:  6, cta: 1 initialized @(2,0)
GPGPU-Sim uArch: core:  7, cta: 1 initialized @(2,0)
GPGPU-Sim uArch: core:  8, cta: 1 initialized @(2,0)
GPGPU-Sim uArch: core:  9, cta: 1 initialized @(2,0)
GPGPU-Sim uArch: core: 10, cta: 1 initialized @(2,0)
GPGPU-Sim uArch: core: 11, cta: 1 initialized @(2,0)
GPGPU-Sim uArch: core: 12, cta: 1 initialized @(2,0)
GPGPU-Sim uArch: core: 13, cta: 1 initialized @(2,0)
GPGPU-Sim uArch: core: 14, cta: 1 initialized @(2,0)
GPGPU-Sim uArch: core:  0, cta: 1 initialized @(2,0)
GPGPU-Sim uArch: core:  1, cta: 2 initialized @(3,0)
GPGPU-Sim uArch: core:  2, cta: 2 initialized @(3,0)
GPGPU-Sim uArch: core:  3, cta: 2 initialized @(3,0)
GPGPU-Sim uArch: core:  4, cta: 2 initialized @(3,0)
GPGPU-Sim uArch: core:  5, cta: 2 initialized @(3,0)
GPGPU-Sim uArch: core:  6, cta: 2 initialized @(3,0)
GPGPU-Sim uArch: core:  7, cta: 2 initialized @(3,0)
GPGPU-Sim uArch: core:  8, cta: 2 initialized @(3,0)
GPGPU-Sim uArch: core:  9, cta: 2 initialized @(3,0)
GPGPU-Sim uArch: core: 10, cta: 2 initialized @(3,0)
GPGPU-Sim uArch: core: 11, cta: 2 initialized @(3,0)
GPGPU-Sim uArch: core: 12, cta: 2 initialized @(3,0)
GPGPU-Sim uArch: core: 13, cta: 2 initialized @(3,0)
GPGPU-Sim uArch: core: 14, cta: 2 initialized @(3,0)
GPGPU-Sim uArch: core:  0, cta: 2 initialized @(3,0)
GPGPU-Sim uArch: core:  1, cta: 3 initialized @(4,0)
GPGPU-Sim uArch: core:  2, cta: 3 initialized @(4,0)
GPGPU-Sim uArch: core:  3, cta: 3 initialized @(4,0)
GPGPU-Sim uArch: core:  4, cta: 3 initialized @(4,0)
GPGPU-Sim uArch: core:  5, cta: 3 initialized @(4,0)
GPGPU-Sim uArch: core:  6, cta: 3 initialized @(4,0)
GPGPU-Sim uArch: core:  7, cta: 3 initialized @(4,0)
GPGPU-Sim uArch: core:  8, cta: 3 initialized @(4,0)
GPGPU-Sim uArch: core:  9, cta: 3 initialized @(4,0)
GPGPU-Sim uArch: core: 10, cta: 3 initialized @(4,0)
GPGPU-Sim uArch: core: 11, cta: 3 initialized @(4,0)
GPGPU-Sim uArch: core: 12, cta: 3 initialized @(4,0)
GPGPU-Sim uArch: core: 13, cta: 3 initialized @(4,0)
GPGPU-Sim uArch: core: 14, cta: 3 initialized @(4,0)
GPGPU-Sim uArch: core:  0, cta: 3 initialized @(4,0)
GPGPU-Sim uArch: cycles simulated: 500  inst.: 0 (ipc= 0.0) sim_rate=0 (inst/sec) elapsed = 0:0:00:02 / Sun Jan 27 19:51:27 2019
GPGPU-Sim PTX: 100000 instructions simulated : ctaid=(40,0,0) tid=(15,13,0)
GPGPU-Sim PTX: 200000 instructions simulated : ctaid=(10,1,0) tid=(15,15,0)
GPGPU-Sim uArch: cycles simulated: 1000  inst.: 221216 (ipc=221.2) sim_rate=73738 (inst/sec) elapsed = 0:0:00:03 / Sun Jan 27 19:51:28 2019
GPGPU-Sim PTX: 300000 instructions simulated : ctaid=(1,0,0) tid=(15,11,0)
GPGPU-Sim PTX: 400000 instructions simulated : ctaid=(31,0,0) tid=(15,5,0)
GPGPU-Sim uArch: cycles simulated: 1500  inst.: 462784 (ipc=308.5) sim_rate=92556 (inst/sec) elapsed = 0:0:00:05 / Sun Jan 27 19:51:30 2019
GPGPU-Sim PTX: 500000 instructions simulated : ctaid=(19,0,0) tid=(15,9,0)
GPGPU-Sim PTX: 600000 instructions simulated : ctaid=(12,1,0) tid=(15,9,0)
GPGPU-Sim PTX: 700000 instructions simulated : ctaid=(35,0,0) tid=(7,14,0)
ldst_unit::memory_cycle() - mf=0x7f7ba120c960
TAG STORE PROBE
	addr=2147490176
	block_addr=2147490176
	tag=2147490176
	idx is LFU
	idx=159 T_MISS
	tag_store->allocate() - tag_index=159
ldst_unit::memory_cycle() - mf=0x7f7ba120c960 BYPASS
ldst_unit::memory_cycle() - mf=0x7f7ba121e470
TAG STORE PROBE
	addr=2147490112
	block_addr=2147490048
	tag=2147490048
	idx is LFU
	idx=151 T_MISS
	tag_store->allocate() - tag_index=151
ldst_unit::memory_cycle() - mf=0x7f7ba121e470 BYPASS
ldst_unit::memory_cycle() - mf=0x7f7ba1229710
TAG STORE PROBE
	addr=2147497984
	block_addr=2147497984
	tag=2147497984
	idx is LFU
	idx=143 T_MISS
	tag_store->allocate() - tag_index=143
ldst_unit::memory_cycle() - mf=0x7f7ba1229710 BYPASS
ldst_unit::memory_cycle() - mf=0x7f7ba122f1c0
TAG STORE PROBE
	addr=2147488128
	block_addr=2147488128
	tag=2147488128
	idx is LFU
	idx=31 T_MISS
	tag_store->allocate() - tag_index=31
ldst_unit::memory_cycle() - mf=0x7f7ba122f1c0 BYPASS
ldst_unit::memory_cycle() - mf=0x7f7ba12395b0
TAG STORE PROBE
	addr=2147495936
	block_addr=2147495936
	tag=2147495936
	idx is LFU
	idx=15 T_MISS
	tag_store->allocate() - tag_index=15
ldst_unit::memory_cycle() - mf=0x7f7ba12395b0 BYPASS
ldst_unit::memory_cycle() - mf=0x7f7ba123f540
TAG STORE PROBE
	addr=2147488064
	block_addr=2147488000
	tag=2147488000
	idx is LFU
	idx=23 T_MISS
	tag_store->allocate() - tag_index=23
ldst_unit::memory_cycle() - mf=0x7f7ba123f540 BYPASS
ldst_unit::memory_cycle() - mf=0x7f7ba124dc90
TAG STORE PROBE
	addr=2147506560
	block_addr=2147506560
	tag=2147506560
	idx is LFU
	idx=143 T_MISS
	tag_store->allocate() - tag_index=143
ldst_unit::memory_cycle() - mf=0x7f7ba124dc90 BYPASS
ldst_unit::memory_cycle() - mf=0x7f7ba125b6e0
TAG STORE PROBE
	addr=2147506496
	block_addr=2147506432
	tag=2147506432
	idx is LFU
	idx=135 T_MISS
	tag_store->allocate() - tag_index=135
ldst_unit::memory_cycle() - mf=0x7f7ba125b6e0 BYPASS
ldst_unit::memory_cycle() - mf=0x7f7ba1270a50
TAG STORE PROBE
	addr=2147504512
	block_addr=2147504512
	tag=2147504512
	idx is LFU
	idx=15 T_MISS
	tag_store->allocate() - tag_index=15
ldst_unit::memory_cycle() - mf=0x7f7ba1270a50 BYPASS
ldst_unit::memory_cycle() - mf=0x7f7ba127e300
TAG STORE PROBE
	addr=2147504448
	block_addr=2147504384
	tag=2147504384
	idx is LFU
	idx=7 T_MISS
	tag_store->allocate() - tag_index=7
ldst_unit::memory_cycle() - mf=0x7f7ba127e300 BYPASS
ldst_unit::memory_cycle() - mf=0x7f7ba12872a0
TAG STORE PROBE
	addr=2147490560
	block_addr=2147490560
	tag=2147490560
	idx is LFU
	idx=183 T_MISS
	tag_store->allocate() - tag_index=183
ldst_unit::memory_cycle() - mf=0x7f7ba12872a0 BYPASS
ldst_unit::memory_cycle() - mf=0x7f7ba128a2f0
TAG STORE PROBE
	addr=2147498112
	block_addr=2147498112
	tag=2147498112
	idx is LFU
	idx=135 T_MISS
	tag_store->allocate() - tag_index=135
ldst_unit::memory_cycle() - mf=0x7f7ba128a2f0 BYPASS
ldst_unit::memory_cycle() - mf=0x7f7ba128f930
TAG STORE PROBE
	addr=2147498368
	block_addr=2147498368
	tag=2147498368
	idx is LFU
	idx=150 T_MISS
	tag_store->allocate() - tag_index=150
ldst_unit::memory_cycle() - mf=0x7f7ba128f930 BYPASS
ldst_unit::memory_cycle() - mf=0x7f7ba1297aa0
TAG STORE PROBE
	addr=2147490528
	block_addr=2147490432
	tag=2147490432
	idx is LFU
	idx=175 T_MISS
	tag_store->allocate() - tag_index=175
ldst_unit::memory_cycle() - mf=0x7f7ba1297aa0 BYPASS
ldst_unit::memory_cycle() - mf=0x7f7ba129a0c0
TAG STORE PROBE
	addr=2147496064
	block_addr=2147496064
	tag=2147496064
	idx is LFU
	idx=7 T_MISS
	tag_store->allocate() - tag_index=7
ldst_unit::memory_cycle() - mf=0x7f7ba129a0c0 BYPASS
ldst_unit::memory_cycle() - mf=0x7f7ba129ef60
TAG STORE PROBE
	addr=2147498304
	block_addr=2147498240
	tag=2147498240
	idx is LFU
	idx=158 T_MISS
	tag_store->allocate() - tag_index=158
ldst_unit::memory_cycle() - mf=0x7f7ba129ef60 BYPASS
ldst_unit::memory_cycle() - mf=0x7f7ba12a7b00
TAG STORE PROBE
	addr=2147488512
	block_addr=2147488512
	tag=2147488512
	idx is LFU
	idx=55 T_MISS
	tag_store->allocate() - tag_index=55
ldst_unit::memory_cycle() - mf=0x7f7ba12a7b00 BYPASS
ldst_unit::memory_cycle() - mf=0x7f7ba12aeb30
TAG STORE PROBE
	addr=2147496320
	block_addr=2147496320
	tag=2147496320
	idx is LFU
	idx=22 T_MISS
	tag_store->allocate() - tag_index=22
ldst_unit::memory_cycle() - mf=0x7f7ba12aeb30 BYPASS
ldst_unit::memory_cycle() - mf=0x7f7ba12b6e40
TAG STORE PROBE
	addr=2147488480
	block_addr=2147488384
	tag=2147488384
	idx is LFU
	idx=47 T_MISS
	tag_store->allocate() - tag_index=47
ldst_unit::memory_cycle() - mf=0x7f7ba12b6e40 BYPASS
ldst_unit::memory_cycle() - mf=0x7f7ba12bf180
TAG STORE PROBE
	addr=2147496256
	block_addr=2147496192
	tag=2147496192
	idx is LFU
	idx=30 T_MISS
	tag_store->allocate() - tag_index=30
ldst_unit::memory_cycle() - mf=0x7f7ba12bf180 BYPASS
ldst_unit::memory_cycle() - mf=0x7f7ba12cf400
TAG STORE PROBE
	addr=2147490816
	block_addr=2147490816
	tag=2147490816
	idx is LFU
	idx=199 T_MISS
	tag_store->allocate() - tag_index=199
ldst_unit::memory_cycle() - mf=0x7f7ba12cf400 BYPASS
ldst_unit::memory_cycle() - mf=0x7f7ba12deaf0
TAG STORE PROBE
	addr=2147488768
	block_addr=2147488768
	tag=2147488768
	idx is LFU
	idx=71 T_MISS
	tag_store->allocate() - tag_index=71
ldst_unit::memory_cycle() - mf=0x7f7ba12deaf0 BYPASS
ldst_unit::memory_cycle() - mf=0x7f7ba12e87e0
TAG STORE PROBE
	addr=2147485696
	block_addr=2147485696
	tag=2147485696
	idx is LFU
	idx=135 T_MISS
	tag_store->allocate() - tag_index=135
ldst_unit::memory_cycle() - mf=0x7f7ba12e87e0 BYPASS
ldst_unit::memory_cycle() - mf=0x7f7ba12f0660
TAG STORE PROBE
	addr=2147499008
	block_addr=2147499008
	tag=2147499008
	idx is LFU
	idx=207 T_MISS
	tag_store->allocate() - tag_index=207
ldst_unit::memory_cycle() - mf=0x7f7ba12f0660 BYPASS
ldst_unit::memory_cycle() - mf=0x7f7ba12face0
TAG STORE PROBE
	addr=2147483648
	block_addr=2147483648
	tag=2147483648
	idx is LFU
	idx=7 T_MISS
	tag_store->allocate() - tag_index=7
ldst_unit::memory_cycle() - mf=0x7f7ba12face0 BYPASS
ldst_unit::memory_cycle() - mf=0x7f7ba1301230
TAG STORE PROBE
	addr=2147496960
	block_addr=2147496960
	tag=2147496960
	idx is LFU
	idx=79 T_MISS
	tag_store->allocate() - tag_index=79
ldst_unit::memory_cycle() - mf=0x7f7ba1301230 BYPASS
ldst_unit::memory_cycle() - mf=0x7f7ba1309030
TAG STORE PROBE
	addr=2147489792
	block_addr=2147489792
	tag=2147489792
	idx is LFU
	idx=134 T_MISS
	tag_store->allocate() - tag_index=134
ldst_unit::memory_cycle() - mf=0x7f7ba1309030 BYPASS
ldst_unit::memory_cycle() - mf=0x7f7ba13190c0
TAG STORE PROBE
	addr=2147487744
	block_addr=2147487744
	tag=2147487744
	idx is LFU
	idx=6 T_MISS
	tag_store->allocate() - tag_index=6
ldst_unit::memory_cycle() - mf=0x7f7ba13190c0 BYPASS
ldst_unit::memory_cycle() - mf=0x7f7ba132a080
TAG STORE PROBE
	addr=2147489920
	block_addr=2147489920
	tag=2147489920
	idx is LFU
	idx=143 T_MISS
	tag_store->allocate() - tag_index=143
ldst_unit::memory_cycle() - mf=0x7f7ba132a080 BYPASS
ldst_unit::memory_cycle() - mf=0x7f7ba133c270
TAG STORE PROBE
	addr=2147487872
	block_addr=2147487872
	tag=2147487872
	idx is LFU
	idx=15 T_MISS
	tag_store->allocate() - tag_index=15
ldst_unit::memory_cycle() - mf=0x7f7ba133c270 BYPASS
ldst_unit::memory_cycle() - mf=0x7f7ba134b750
TAG STORE PROBE
	addr=2147493888
	block_addr=2147493888
	tag=2147493888
	idx is LFU
	idx=142 T_MISS
	tag_store->allocate() - tag_index=142
ldst_unit::memory_cycle() - mf=0x7f7ba134b750 BYPASS
ldst_unit::memory_cycle() - mf=0x7f7ba134e8c0
TAG STORE PROBE
	addr=2147506304
	block_addr=2147506304
	tag=2147506304
	idx is LFU
	idx=159 T_MISS
	tag_store->allocate() - tag_index=159
ldst_unit::memory_cycle() - mf=0x7f7ba134e8c0 BYPASS
ldst_unit::memory_cycle() - mf=0x7f7ba135cf20
TAG STORE PROBE
	addr=2147491840
	block_addr=2147491840
	tag=2147491840
	idx is LFU
	idx=14 T_MISS
	tag_store->allocate() - tag_index=14
ldst_unit::memory_cycle() - mf=0x7f7ba135cf20 BYPASS
ldst_unit::memory_cycle() - mf=0x7f7ba135f6f0
TAG STORE PROBE
	addr=2147504256
	block_addr=2147504256
	tag=2147504256
	idx is LFU
	idx=31 T_MISS
	tag_store->allocate() - tag_index=31
ldst_unit::memory_cycle() - mf=0x7f7ba135f6f0 BYPASS
ldst_unit::memory_cycle() - mf=0x7f7ba1363f90
TAG STORE PROBE
	addr=2147494272
	block_addr=2147494272
	tag=2147494272
	idx is LFU
	idx=149 T_MISS
	tag_store->allocate() - tag_index=149
ldst_unit::memory_cycle() - mf=0x7f7ba1363f90 BYPASS
ldst_unit::memory_cycle() - mf=0x7f7ba1371a90
TAG STORE PROBE
	addr=2147494208
	block_addr=2147494144
	tag=2147494144
	idx is LFU
	idx=157 T_MISS
	tag_store->allocate() - tag_index=157
ldst_unit::memory_cycle() - mf=0x7f7ba1371a90 BYPASS
ldst_unit::memory_cycle() - mf=0x7f7ba137add0
TAG STORE PROBE
	addr=2147506176
	block_addr=2147506176
	tag=2147506176
	idx is LFU
	idx=151 T_MISS
	tag_store->allocate() - tag_index=151
ldst_unit::memory_cycle() - mf=0x7f7ba137add0 BYPASS
ldst_unit::memory_cycle() - mf=0x7f7ba1381c40
TAG STORE PROBE
	addr=2147492224
	block_addr=2147492224
	tag=2147492224
	idx is LFU
	idx=21 T_MISS
	tag_store->allocate() - tag_index=21
ldst_unit::memory_cycle() - mf=0x7f7ba1381c40 BYPASS
ldst_unit::memory_cycle() - mf=0x7f7ba138a5e0
TAG STORE PROBE
	addr=2147504128
	block_addr=2147504128
	tag=2147504128
	idx is LFU
	idx=23 T_MISS
	tag_store->allocate() - tag_index=23
ldst_unit::memory_cycle() - mf=0x7f7ba138a5e0 BYPASS
ldst_unit::memory_cycle() - mf=0x7f7ba13918a0
TAG STORE PROBE
	addr=2147492160
	block_addr=2147492096
	tag=2147492096
	idx is LFU
	idx=29 T_MISS
	tag_store->allocate() - tag_index=29
ldst_unit::memory_cycle() - mf=0x7f7ba13918a0 BYPASS
ldst_unit::memory_cycle() - mf=0x7f7ba07a5090
TAG STORE PROBE
	addr=2147510656
	block_addr=2147510656
	tag=2147510656
	idx is LFU
	idx=134 T_MISS
	tag_store->allocate() - tag_index=134
ldst_unit::memory_cycle() - mf=0x7f7ba07a5090 BYPASS
ldst_unit::memory_cycle() - mf=0x7f7ba13b1ba0
TAG STORE PROBE
	addr=2147510272
	block_addr=2147510272
	tag=2147510272
	idx is LFU
	idx=159 T_MISS
	tag_store->allocate() - tag_index=159
ldst_unit::memory_cycle() - mf=0x7f7ba13b1ba0 BYPASS
ldst_unit::memory_cycle() - mf=0x7f7ba13b9250
TAG STORE PROBE
	addr=2147510592
	block_addr=2147510528
	tag=2147510528
	idx is LFU
	idx=142 T_MISS
	tag_store->allocate() - tag_index=142
ldst_unit::memory_cycle() - mf=0x7f7ba13b9250 BYPASS
ldst_unit::memory_cycle() - mf=0x7f7ba13bb9e0
TAG STORE PROBE
	addr=2147490176
	block_addr=2147490176
	tag=2147490176
	idx is LFU
	idx=159 T_MISS
	tag_store->allocate() - tag_index=159
ldst_unit::memory_cycle() - mf=0x7f7ba13bb9e0 BYPASS
ldst_unit::memory_cycle() - mf=0x7f7ba13c57b0
TAG STORE PROBE
	addr=2147508224
	block_addr=2147508224
	tag=2147508224
	idx is LFU
	idx=31 T_MISS
	tag_store->allocate() - tag_index=31
ldst_unit::memory_cycle() - mf=0x7f7ba13c57b0 BYPASS
ldst_unit::memory_cycle() - mf=0x7f7ba13cae60
TAG STORE PROBE
	addr=2147508608
	block_addr=2147508608
	tag=2147508608
	idx is LFU
	idx=6 T_MISS
	tag_store->allocate() - tag_index=6
ldst_unit::memory_cycle() - mf=0x7f7ba13cae60 BYPASS
ldst_unit::memory_cycle() - mf=0x7f7ba13cc900
TAG STORE PROBE
	addr=2147490144
	block_addr=2147490048
	tag=2147490048
	idx is LFU
	idx=151 T_MISS
	tag_store->allocate() - tag_index=151
ldst_unit::memory_cycle() - mf=0x7f7ba13cc900 BYPASS
ldst_unit::memory_cycle() - mf=0x7f7ba13d3bd0
TAG STORE PROBE
	addr=2147502080
	block_addr=2147502080
	tag=2147502080
	idx is LFU
	idx=150 T_MISS
	tag_store->allocate() - tag_index=150
ldst_unit::memory_cycle() - mf=0x7f7ba13d3bd0 BYPASS
ldst_unit::memory_cycle() - mf=0x7f7ba13ddd30
TAG STORE PROBE
	addr=2147508544
	block_addr=2147508480
	tag=2147508480
	idx is LFU
	idx=14 T_MISS
	tag_store->allocate() - tag_index=14
ldst_unit::memory_cycle() - mf=0x7f7ba13ddd30 BYPASS
ldst_unit::memory_cycle() - mf=0x7f7ba13df670
TAG STORE PROBE
	addr=2147488128
	block_addr=2147488128
	tag=2147488128
	idx is LFU
	idx=31 T_MISS
	tag_store->allocate() - tag_index=31
ldst_unit::memory_cycle() - mf=0x7f7ba13df670 BYPASS
ldst_unit::memory_cycle() - mf=0x7f7ba13e6e80
TAG STORE PROBE
	addr=2147489792
	block_addr=2147489792
	tag=2147489792
	idx is LFU
	idx=135 T_MISS
	tag_store->allocate() - tag_index=135
ldst_unit::memory_cycle() - mf=0x7f7ba13e6e80 BYPASS
ldst_unit::memory_cycle() - mf=0x7f7ba13e8760
TAG STORE PROBE
	addr=2147500032
	block_addr=2147500032
	tag=2147500032
	idx is LFU
	idx=22 T_MISS
	tag_store->allocate() - tag_index=22
ldst_unit::memory_cycle() - mf=0x7f7ba13e8760 BYPASS
ldst_unit::memory_cycle() - mf=0x7f7ba13ef010
TAG STORE PROBE
	addr=2147486080
	block_addr=2147486080
	tag=2147486080
	idx is LFU
	idx=156 T_MISS
	tag_store->allocate() - tag_index=156
ldst_unit::memory_cycle() - mf=0x7f7ba13ef010 BYPASS
ldst_unit::memory_cycle() - mf=0x7f7ba13f0ae0
TAG STORE PROBE
	addr=2147488096
	block_addr=2147488000
	tag=2147488000
	idx is LFU
	idx=23 T_MISS
	tag_store->allocate() - tag_index=23
ldst_unit::memory_cycle() - mf=0x7f7ba13f0ae0 BYPASS
ldst_unit::memory_cycle() - mf=0x7f7ba13f7ea0
TAG STORE PROBE
	addr=2147487744
	block_addr=2147487744
	tag=2147487744
	idx is LFU
	idx=7 T_MISS
	tag_store->allocate() - tag_index=7
ldst_unit::memory_cycle() - mf=0x7f7ba13f7ea0 BYPASS
ldst_unit::memory_cycle() - mf=0x7f7ba13fa570
TAG STORE PROBE
	addr=2147498752
	block_addr=2147498752
	tag=2147498752
	idx is LFU
	idx=191 T_MISS
	tag_store->allocate() - tag_index=191
ldst_unit::memory_cycle() - mf=0x7f7ba13fa570 BYPASS
ldst_unit::memory_cycle() - mf=0x7f7ba13fc250
TAG STORE PROBE
	addr=2147489920
	block_addr=2147489920
	tag=2147489920
	idx is LFU
	idx=143 T_MISS
	tag_store->allocate() - tag_index=143
ldst_unit::memory_cycle() - mf=0x7f7ba13fc250 BYPASS
ldst_unit::memory_cycle() - mf=0x7f7ba1402940
TAG STORE PROBE
	addr=2147486016
	block_addr=2147485952
	tag=2147485952
	idx is LFU
	idx=148 T_MISS
	tag_store->allocate() - tag_index=148
ldst_unit::memory_cycle() - mf=0x7f7ba1402940 BYPASS
ldst_unit::memory_cycle() - mf=0x7f7ba140a7e0
TAG STORE PROBE
	addr=2147485696
	block_addr=2147485696
	tag=2147485696
	idx is LFU
	idx=134 T_MISS
	tag_store->allocate() - tag_index=134
ldst_unit::memory_cycle() - mf=0x7f7ba140a7e0 BYPASS
ldst_unit::memory_cycle() - mf=0x7f7ba140bff0
TAG STORE PROBE
	addr=2147498720
	block_addr=2147498624
	tag=2147498624
	idx is LFU
	idx=167 T_MISS
	tag_store->allocate() - tag_index=167
ldst_unit::memory_cycle() - mf=0x7f7ba140bff0 BYPASS
ldst_unit::memory_cycle() - mf=0x7f7ba140db40
TAG STORE PROBE
	addr=2147489856
	block_addr=2147489792
	tag=2147489792
	idx is LFU
	idx=135 T_MISS
	tag_store->allocate() - tag_index=135
ldst_unit::memory_cycle() - mf=0x7f7ba140db40 BYPASS
ldst_unit::memory_cycle() - mf=0x7f7ba1412d00
TAG STORE PROBE
	addr=2147484032
	block_addr=2147484032
	tag=2147484032
	idx is LFU
	idx=28 T_MISS
	tag_store->allocate() - tag_index=28
ldst_unit::memory_cycle() - mf=0x7f7ba1412d00 BYPASS
ldst_unit::memory_cycle() - mf=0x7f7ba141b720
TAG STORE PROBE
	addr=2147483648
	block_addr=2147483648
	tag=2147483648
	idx is LFU
	idx=6 T_MISS
	tag_store->allocate() - tag_index=6
ldst_unit::memory_cycle() - mf=0x7f7ba141b720 BYPASS
ldst_unit::memory_cycle() - mf=0x7f7ba141dcc0
TAG STORE PROBE
	addr=2147496704
	block_addr=2147496704
	tag=2147496704
	idx is LFU
	idx=63 T_MISS
	tag_store->allocate() - tag_index=63
ldst_unit::memory_cycle() - mf=0x7f7ba141dcc0 BYPASS
ldst_unit::memory_cycle() - mf=0x7f7ba14233f0
TAG STORE PROBE
	addr=2147487872
	block_addr=2147487872
	tag=2147487872
	idx is LFU
	idx=15 T_MISS
	tag_store->allocate() - tag_index=15
ldst_unit::memory_cycle() - mf=0x7f7ba14233f0 BYPASS
ldst_unit::memory_cycle() - mf=0x7f7ba14284d0
TAG STORE PROBE
	addr=2147483968
	block_addr=2147483904
	tag=2147483904
	idx is LFU
	idx=20 T_MISS
	tag_store->allocate() - tag_index=20
ldst_unit::memory_cycle() - mf=0x7f7ba14284d0 BYPASS
ldst_unit::memory_cycle() - mf=0x7f7ba1431900
TAG STORE PROBE
	addr=2147497984
	block_addr=2147497984
	tag=2147497984
	idx is LFU
	idx=143 T_MISS
	tag_store->allocate() - tag_index=143
ldst_unit::memory_cycle() - mf=0x7f7ba1431900 BYPASS
ldst_unit::memory_cycle() - mf=0x7f7ba1433220
TAG STORE PROBE
	addr=2147496672
	block_addr=2147496576
	tag=2147496576
	idx is LFU
	idx=39 T_MISS
	tag_store->allocate() - tag_index=39
ldst_unit::memory_cycle() - mf=0x7f7ba1433220 BYPASS
ldst_unit::memory_cycle() - mf=0x7f7ba1434ba0
TAG STORE PROBE
	addr=2147487808
	block_addr=2147487744
	tag=2147487744
	idx is LFU
	idx=7 T_MISS
	tag_store->allocate() - tag_index=7
ldst_unit::memory_cycle() - mf=0x7f7ba1434ba0 BYPASS
ldst_unit::memory_cycle() - mf=0x7f7ba143ac50
TAG STORE PROBE
	addr=2147502464
	block_addr=2147502464
	tag=2147502464
	idx is LFU
	idx=141 T_MISS
	tag_store->allocate() - tag_index=141
ldst_unit::memory_cycle() - mf=0x7f7ba143ac50 BYPASS
ldst_unit::memory_cycle() - mf=0x7f7ba1444060
TAG STORE PROBE
	addr=2147495936
	block_addr=2147495936
	tag=2147495936
	idx is LFU
	idx=15 T_MISS
	tag_store->allocate() - tag_index=15
ldst_unit::memory_cycle() - mf=0x7f7ba1444060 BYPASS
ldst_unit::memory_cycle() - mf=0x7f7ba1445b50
TAG STORE PROBE
	addr=2147486464
	block_addr=2147486464
	tag=2147486464
	idx is LFU
	idx=182 T_MISS
	tag_store->allocate() - tag_index=182
ldst_unit::memory_cycle() - mf=0x7f7ba1445b50 BYPASS
ldst_unit::memory_cycle() - mf=0x7f7ba1448250
TAG STORE PROBE
	addr=2147494016
	block_addr=2147494016
	tag=2147494016
	idx is LFU
	idx=134 T_MISS
	tag_store->allocate() - tag_index=134
ldst_unit::memory_cycle() - mf=0x7f7ba1448250 BYPASS
ldst_unit::memory_cycle() - mf=0x7f7ba144eb60
TAG STORE PROBE
	addr=2147502400
	block_addr=2147502336
	tag=2147502336
	idx is LFU
	idx=133 T_MISS
	tag_store->allocate() - tag_index=133
ldst_unit::memory_cycle() - mf=0x7f7ba144eb60 BYPASS
ldst_unit::memory_cycle() - mf=0x7f7ba14589c0
TAG STORE PROBE
	addr=2147486432
	block_addr=2147486336
	tag=2147486336
	idx is LFU
	idx=174 T_MISS
	tag_store->allocate() - tag_index=174
ldst_unit::memory_cycle() - mf=0x7f7ba14589c0 BYPASS
ldst_unit::memory_cycle() - mf=0x7f7ba145a470
TAG STORE PROBE
	addr=2147493952
	block_addr=2147493888
	tag=2147493888
	idx is LFU
	idx=142 T_MISS
	tag_store->allocate() - tag_index=142
ldst_unit::memory_cycle() - mf=0x7f7ba145a470 BYPASS
ldst_unit::memory_cycle() - mf=0x7f7ba145ca00
TAG STORE PROBE
	addr=2147485824
	block_addr=2147485824
	tag=2147485824
	idx is LFU
	idx=142 T_MISS
	tag_store->allocate() - tag_index=142
ldst_unit::memory_cycle() - mf=0x7f7ba145ca00 BYPASS
ldst_unit::memory_cycle() - mf=0x7f7ba1460c80
TAG STORE PROBE
	addr=2147500416
	block_addr=2147500416
	tag=2147500416
	idx is LFU
	idx=13 T_MISS
	tag_store->allocate() - tag_index=13
ldst_unit::memory_cycle() - mf=0x7f7ba1460c80 BYPASS
ldst_unit::memory_cycle() - mf=0x7f7ba1468fb0
TAG STORE PROBE
	addr=2147493888
	block_addr=2147493888
	tag=2147493888
	idx is LFU
	idx=142 T_MISS
	tag_store->allocate() - tag_index=142
ldst_unit::memory_cycle() - mf=0x7f7ba1468fb0 BYPASS
ldst_unit::memory_cycle() - mf=0x7f7ba146b710
TAG STORE PROBE
	addr=2147484416
	block_addr=2147484416
	tag=2147484416
	idx is LFU
	idx=54 T_MISS
	tag_store->allocate() - tag_index=54
ldst_unit::memory_cycle() - mf=0x7f7ba146b710 BYPASS
ldst_unit::memory_cycle() - mf=0x7f7ba146d380
TAG STORE PROBE
	addr=2147491968
	block_addr=2147491968
	tag=2147491968
	idx is LFU
	idx=6 T_MISS
	tag_store->allocate() - tag_index=6
ldst_unit::memory_cycle() - mf=0x7f7ba146d380 BYPASS
ldst_unit::memory_cycle() - mf=0x7f7ba146f910
TAG STORE PROBE
	addr=2147483776
	block_addr=2147483776
	tag=2147483776
	idx is LFU
	idx=14 T_MISS
	tag_store->allocate() - tag_index=14
ldst_unit::memory_cycle() - mf=0x7f7ba146f910 BYPASS
ldst_unit::memory_cycle() - mf=0x7f7ba1474710
TAG STORE PROBE
	addr=2147500352
	block_addr=2147500288
	tag=2147500288
	idx is LFU
	idx=5 T_MISS
	tag_store->allocate() - tag_index=5
ldst_unit::memory_cycle() - mf=0x7f7ba1474710 BYPASS
ldst_unit::memory_cycle() - mf=0x7f7ba1476450
TAG STORE PROBE
	addr=2147486080
	block_addr=2147486080
	tag=2147486080
	idx is LFU
	idx=158 T_MISS
	tag_store->allocate() - tag_index=158
ldst_unit::memory_cycle() - mf=0x7f7ba1476450 BYPASS
ldst_unit::memory_cycle() - mf=0x7f7ba147c720
TAG STORE PROBE
	addr=2147491840
	block_addr=2147491840
	tag=2147491840
	idx is LFU
	idx=14 T_MISS
	tag_store->allocate() - tag_index=14
ldst_unit::memory_cycle() - mf=0x7f7ba147c720 BYPASS
ldst_unit::memory_cycle() - mf=0x7f7ba147df30
TAG STORE PROBE
	addr=2147484384
	block_addr=2147484288
	tag=2147484288
	idx is LFU
	idx=46 T_MISS
	tag_store->allocate() - tag_index=46
ldst_unit::memory_cycle() - mf=0x7f7ba147df30 BYPASS
ldst_unit::memory_cycle() - mf=0x7f7ba147d9c0
TAG STORE PROBE
	addr=2147491904
	block_addr=2147491840
	tag=2147491840
	idx is LFU
	idx=14 T_MISS
	tag_store->allocate() - tag_index=14
ldst_unit::memory_cycle() - mf=0x7f7ba147d9c0 BYPASS
ldst_unit::memory_cycle() - mf=0x7f7ba1483ba0
TAG STORE PROBE
	addr=2147486720
	block_addr=2147486720
	tag=2147486720
	idx is LFU
	idx=198 T_MISS
	tag_store->allocate() - tag_index=198
ldst_unit::memory_cycle() - mf=0x7f7ba1483ba0 BYPASS
ldst_unit::memory_cycle() - mf=0x7f7ba14861e0
TAG STORE PROBE
	addr=2147486048
	block_addr=2147485952
	tag=2147485952
	idx is LFU
	idx=150 T_MISS
	tag_store->allocate() - tag_index=150
ldst_unit::memory_cycle() - mf=0x7f7ba14861e0 BYPASS
ldst_unit::memory_cycle() - mf=0x7f7ba148e6d0
TAG STORE PROBE
	addr=2147506176
	block_addr=2147506176
	tag=2147506176
	idx is LFU
	idx=151 T_MISS
	tag_store->allocate() - tag_index=151
ldst_unit::memory_cycle() - mf=0x7f7ba148e6d0 BYPASS
ldst_unit::memory_cycle() - mf=0x7f7ba148fee0
TAG STORE PROBE
	addr=2147494656
	block_addr=2147494656
	tag=2147494656
	idx is LFU
	idx=190 T_MISS
	tag_store->allocate() - tag_index=190
ldst_unit::memory_cycle() - mf=0x7f7ba148fee0 BYPASS
ldst_unit::memory_cycle() - mf=0x7f7ba1492340
TAG STORE PROBE
	addr=2147498112
	block_addr=2147498112
	tag=2147498112
	idx is LFU
	idx=133 T_MISS
	tag_store->allocate() - tag_index=133
ldst_unit::memory_cycle() - mf=0x7f7ba1492340 BYPASS
ldst_unit::memory_cycle() - mf=0x7f7ba1493ed0
TAG STORE PROBE
	addr=2147494016
	block_addr=2147494016
	tag=2147494016
	idx is LFU
	idx=134 T_MISS
	tag_store->allocate() - tag_index=134
ldst_unit::memory_cycle() - mf=0x7f7ba1493ed0 BYPASS
ldst_unit::memory_cycle() - mf=0x7f7ba1498c70
TAG STORE PROBE
	addr=2147484672
	block_addr=2147484672
	tag=2147484672
	idx is LFU
	idx=70 T_MISS
	tag_store->allocate() - tag_index=70
ldst_unit::memory_cycle() - mf=0x7f7ba1498c70 BYPASS
ldst_unit::memory_cycle() - mf=0x7f7ba149a710
TAG STORE PROBE
	addr=2147484032
	block_addr=2147484032
	tag=2147484032
	idx is LFU
	idx=30 T_MISS
	tag_store->allocate() - tag_index=30
ldst_unit::memory_cycle() - mf=0x7f7ba149a710 BYPASS
ldst_unit::memory_cycle() - mf=0x7f7ba14a3940
TAG STORE PROBE
	addr=2147504128
	block_addr=2147504128
	tag=2147504128
	idx is LFU
	idx=23 T_MISS
	tag_store->allocate() - tag_index=23
ldst_unit::memory_cycle() - mf=0x7f7ba14a3940 BYPASS
ldst_unit::memory_cycle() - mf=0x7f7ba14a6030
TAG STORE PROBE
	addr=2147494624
	block_addr=2147494528
	tag=2147494528
	idx is LFU
	idx=166 T_MISS
	tag_store->allocate() - tag_index=166
ldst_unit::memory_cycle() - mf=0x7f7ba14a6030 BYPASS
ldst_unit::memory_cycle() - delete mf=0x7f7ba14a6030
ldst_unit::memory_cycle() - mf=0x7f7ba14a6ca0
TAG STORE PROBE
	addr=2147498048
	block_addr=2147497984
	tag=2147497984
	idx is LFU
	idx=141 T_MISS
	tag_store->allocate() - tag_index=141
ldst_unit::memory_cycle() - mf=0x7f7ba14a6ca0 BYPASS
ldst_unit::memory_cycle() - mf=0x7f7ba14a86b0
TAG STORE PROBE
	addr=2147491968
	block_addr=2147491968
	tag=2147491968
	idx is LFU
	idx=6 T_MISS
	tag_store->allocate() - tag_index=6
ldst_unit::memory_cycle() - mf=0x7f7ba14a86b0 BYPASS
ldst_unit::memory_cycle() - mf=0x7f7ba14ac920
TAG STORE PROBE
	addr=2147507200
	block_addr=2147507200
	tag=2147507200
	idx is LFU
	idx=215 T_MISS
	tag_store->allocate() - tag_index=215
ldst_unit::memory_cycle() - mf=0x7f7ba14ac920 BYPASS
ldst_unit::memory_cycle() - delete mf=0x7f7ba14ac920
ldst_unit::memory_cycle() - mf=0x7f7ba14ae0b0
TAG STORE PROBE
	addr=2147484000
	block_addr=2147483904
	tag=2147483904
	idx is LFU
	idx=22 T_MISS
	tag_store->allocate() - tag_index=22
ldst_unit::memory_cycle() - mf=0x7f7ba14ae0b0 BYPASS
ldst_unit::memory_cycle() - mf=0x7f7ba14afbc0
TAG STORE PROBE
	addr=2147498368
	block_addr=2147498368
	tag=2147498368
	idx is LFU
	idx=151 T_MISS
	tag_store->allocate() - tag_index=151
ldst_unit::memory_cycle() - mf=0x7f7ba14afbc0 BYPASS
ldst_unit::memory_cycle() - mf=0x7f7ba14b5fe0
TAG STORE PROBE
	addr=2147490560
	block_addr=2147490560
	tag=2147490560
	idx is LFU
	idx=183 T_MISS
	tag_store->allocate() - tag_index=183
ldst_unit::memory_cycle() - mf=0x7f7ba14b5fe0 BYPASS
ldst_unit::memory_cycle() - mf=0x7f7ba14b8530
TAG STORE PROBE
	addr=2147494624
	block_addr=2147494528
	tag=2147494528
	idx=166 T_HIT
ldst_unit::memory_cycle() - mf=0x7f7ba14b8530 BYPASS
ldst_unit::memory_cycle() - mf=0x7f7ba14b8060
TAG STORE PROBE
	addr=2147496064
	block_addr=2147496064
	tag=2147496064
	idx is LFU
	idx=5 T_MISS
	tag_store->allocate() - tag_index=5
ldst_unit::memory_cycle() - mf=0x7f7ba14b8060 BYPASS
ldst_unit::memory_cycle() - mf=0x7f7ba14bc230
TAG STORE PROBE
	addr=2147510400
	block_addr=2147510400
	tag=2147510400
	idx is LFU
	idx=151 T_MISS
	tag_store->allocate() - tag_index=151
ldst_unit::memory_cycle() - mf=0x7f7ba14bc230 BYPASS
ldst_unit::memory_cycle() - mf=0x7f7ba14c1870
TAG STORE PROBE
	addr=2147507200
	block_addr=2147507200
	tag=2147507200
	idx=215 T_HIT
ldst_unit::memory_cycle() - mf=0x7f7ba14c1870 BYPASS
ldst_unit::memory_cycle() - delete mf=0x7f7ba14c1870
ldst_unit::memory_cycle() - mf=0x7f7ba14c2ff0
TAG STORE PROBE
	addr=2147498368
	block_addr=2147498368
	tag=2147498368
	idx is LFU
	idx=149 T_MISS
	tag_store->allocate() - tag_index=149
ldst_unit::memory_cycle() - mf=0x7f7ba14c2ff0 BYPASS
ldst_unit::memory_cycle() - mf=0x7f7ba14c4af0
TAG STORE PROBE
	addr=2147496320
	block_addr=2147496320
	tag=2147496320
	idx is LFU
	idx=23 T_MISS
	tag_store->allocate() - tag_index=23
ldst_unit::memory_cycle() - mf=0x7f7ba14c4af0 BYPASS
ldst_unit::memory_cycle() - mf=0x7f7ba14cb840
TAG STORE PROBE
	addr=2147490496
	block_addr=2147490432
	tag=2147490432
	idx is LFU
	idx=175 T_MISS
	tag_store->allocate() - tag_index=175
ldst_unit::memory_cycle() - mf=0x7f7ba14cb840 BYPASS
ldst_unit::memory_cycle() - mf=0x7f7ba14d0570
TAG STORE PROBE
	addr=2147492608
	block_addr=2147492608
	tag=2147492608
	idx is LFU
	idx=62 T_MISS
	tag_store->allocate() - tag_index=62
ldst_unit::memory_cycle() - mf=0x7f7ba14d0570 BYPASS
ldst_unit::memory_cycle() - delete mf=0x7f7ba14d0570
ldst_unit::memory_cycle() - mf=0x7f7ba14d19d0
TAG STORE PROBE
	addr=2147496000
	block_addr=2147495936
	tag=2147495936
	idx is LFU
	idx=13 T_MISS
	tag_store->allocate() - tag_index=13
ldst_unit::memory_cycle() - mf=0x7f7ba14d19d0 BYPASS
ldst_unit::memory_cycle() - mf=0x7f7ba14d14c0
TAG STORE PROBE
	addr=2147508352
	block_addr=2147508352
	tag=2147508352
	idx is LFU
	idx=23 T_MISS
	tag_store->allocate() - tag_index=23
ldst_unit::memory_cycle() - mf=0x7f7ba14d14c0 BYPASS
ldst_unit::memory_cycle() - mf=0x7f7ba14d7620
TAG STORE PROBE
	addr=2147507200
	block_addr=2147507200
	tag=2147507200
	idx=215 T_HIT
ldst_unit::memory_cycle() - mf=0x7f7ba14d7620 BYPASS
ldst_unit::memory_cycle() - delete mf=0x7f7ba14d7620
ldst_unit::memory_cycle() - mf=0x7f7ba14d8e10
TAG STORE PROBE
	addr=2147498336
	block_addr=2147498240
	tag=2147498240
	idx is LFU
	idx=157 T_MISS
	tag_store->allocate() - tag_index=157
ldst_unit::memory_cycle() - mf=0x7f7ba14d8e10 BYPASS
ldst_unit::memory_cycle() - mf=0x7f7ba14db3d0
TAG STORE PROBE
	addr=2147490944
	block_addr=2147490944
	tag=2147490944
	idx is LFU
	idx=207 T_MISS
	tag_store->allocate() - tag_index=207
ldst_unit::memory_cycle() - mf=0x7f7ba14db3d0 BYPASS
ldst_unit::memory_cycle() - mf=0x7f7ba14e19d0
TAG STORE PROBE
	addr=2147488512
	block_addr=2147488512
	tag=2147488512
	idx is LFU
	idx=55 T_MISS
	tag_store->allocate() - tag_index=55
ldst_unit::memory_cycle() - mf=0x7f7ba14e19d0 BYPASS
ldst_unit::memory_cycle() - mf=0x7f7ba14e31e0
TAG STORE PROBE
	addr=2147492608
	block_addr=2147492608
	tag=2147492608
	idx=62 T_HIT
ldst_unit::memory_cycle() - mf=0x7f7ba14e31e0 BYPASS
ldst_unit::memory_cycle() - mf=0x7f7ba14e2c90
TAG STORE PROBE
	addr=2147485824
	block_addr=2147485824
	tag=2147485824
	idx is LFU
	idx=140 T_MISS
	tag_store->allocate() - tag_index=140
ldst_unit::memory_cycle() - mf=0x7f7ba14e2c90 BYPASS
ldst_unit::memory_cycle() - mf=0x7f7ba14e96b0
TAG STORE PROBE
	addr=2147507200
	block_addr=2147507200
	tag=2147507200
	idx=215 T_HIT
ldst_unit::l1d_process_memory_access_queue() - mf=0x7f7ba14e96b0
l1_cache::access() - mf=0x7f7ba14e96b0
l1_cache::process_tag_probe() - mf=0x7f7ba14e96b0
l1_cache::rd_miss_base() - mf=0x7f7ba14e96b0
l1_cache::rd_miss_base() - mf=0x7f7ba14e96b0
l1_cache::send_read_request_2() - mf=0x7f7ba14e96b0
		access 2
ldst_unit::memory_cycle() - mf=0x7f7ba14e91d0
TAG STORE PROBE
	addr=2147496320
	block_addr=2147496320
	tag=2147496320
	idx is LFU
	idx=21 T_MISS
	tag_store->allocate() - tag_index=21
ldst_unit::memory_cycle() - mf=0x7f7ba14e91d0 BYPASS
ldst_unit::memory_cycle() - mf=0x7f7ba14ed020
TAG STORE PROBE
	addr=2147490912
	block_addr=2147490816
	tag=2147490816
	idx is LFU
	idx=199 T_MISS
	tag_store->allocate() - tag_index=199
ldst_unit::memory_cycle() - mf=0x7f7ba14ed020 BYPASS
ldst_unit::memory_cycle() - mf=0x7f7ba14f7160
TAG STORE PROBE
	addr=2147488448
	block_addr=2147488384
	tag=2147488384
	idx is LFU
	idx=47 T_MISS
	tag_store->allocate() - tag_index=47
ldst_unit::memory_cycle() - mf=0x7f7ba14f7160 BYPASS
ldst_unit::memory_cycle() - mf=0x7f7ba14f9830
TAG STORE PROBE
	addr=2147492576
	block_addr=2147492480
	tag=2147492480
	idx is LFU
	idx=38 T_MISS
	tag_store->allocate() - tag_index=38
ldst_unit::memory_cycle() - mf=0x7f7ba14f9830 BYPASS
ldst_unit::memory_cycle() - delete mf=0x7f7ba14f9830
ldst_unit::memory_cycle() - mf=0x7f7ba14fa500
TAG STORE PROBE
	addr=2147485760
	block_addr=2147485696
	tag=2147485696
	idx is LFU
	idx=132 T_MISS
	tag_store->allocate() - tag_index=132
ldst_unit::memory_cycle() - mf=0x7f7ba14fa500 BYPASS
ldst_unit::memory_cycle() - mf=0x7f7ba14ffa00
TAG STORE PROBE
	addr=2147505152
	block_addr=2147505152
	tag=2147505152
	idx is LFU
	idx=87 T_MISS
	tag_store->allocate() - tag_index=87
ldst_unit::memory_cycle() - mf=0x7f7ba14ffa00 BYPASS
ldst_unit::memory_cycle() - delete mf=0x7f7ba14ffa00
ldst_unit::memory_cycle() - mf=0x7f7ba15000d0
TAG STORE PROBE
	addr=2147496288
	block_addr=2147496192
	tag=2147496192
	idx is LFU
	idx=29 T_MISS
	tag_store->allocate() - tag_index=29
ldst_unit::memory_cycle() - mf=0x7f7ba15000d0 BYPASS
ldst_unit::memory_cycle() - mf=0x7f7ba1501ae0
TAG STORE PROBE
	addr=2147488896
	block_addr=2147488896
	tag=2147488896
	idx is LFU
	idx=79 T_MISS
	tag_store->allocate() - tag_index=79
ldst_unit::memory_cycle() - mf=0x7f7ba1501ae0 BYPASS
ldst_unit::memory_cycle() - mf=0x7f7ba1506ae0
TAG STORE PROBE
	addr=2147486336
	block_addr=2147486336
	tag=2147486336
	idx is LFU
	idx=175 T_MISS
	tag_store->allocate() - tag_index=175
ldst_unit::memory_cycle() - mf=0x7f7ba1506ae0 BYPASS
ldst_unit::memory_cycle() - mf=0x7f7ba1509ba0
TAG STORE PROBE
	addr=2147486464
	block_addr=2147486464
	tag=2147486464
	idx is LFU
	idx=182 T_MISS
	tag_store->allocate() - tag_index=182
ldst_unit::memory_cycle() - mf=0x7f7ba1509ba0 BYPASS
ldst_unit::memory_cycle() - mf=0x7f7ba150b670
TAG STORE PROBE
	addr=2147492576
	block_addr=2147492480
	tag=2147492480
	idx=38 T_HIT
ldst_unit::memory_cycle() - mf=0x7f7ba150b670 BYPASS
ldst_unit::memory_cycle() - mf=0x7f7ba150d310
TAG STORE PROBE
	addr=2147483776
	block_addr=2147483776
	tag=2147483776
	idx is LFU
	idx=12 T_MISS
	tag_store->allocate() - tag_index=12
ldst_unit::memory_cycle() - mf=0x7f7ba150d310 BYPASS
ldst_unit::memory_cycle() - mf=0x7f7ba150f8b0
TAG STORE PROBE
	addr=2147502208
	block_addr=2147502208
	tag=2147502208
	idx is LFU
	idx=158 T_MISS
	tag_store->allocate() - tag_index=158
ldst_unit::memory_cycle() - mf=0x7f7ba150f8b0 BYPASS
ldst_unit::memory_cycle() - mf=0x7f7ba1514450
TAG STORE PROBE
	addr=2147505152
	block_addr=2147505152
	tag=2147505152
	idx=87 T_HIT
ldst_unit::memory_cycle() - mf=0x7f7ba1514450 BYPASS
GPGPU-Sim PTX: 800000 instructions simulated : ctaid=(9,1,0) tid=(15,14,0)
ldst_unit::memory_cycle() - mf=0x7f7ba1515fc0
TAG STORE PROBE
	addr=2147506560
	block_addr=2147506560
	tag=2147506560
	idx is LFU
	idx=143 T_MISS
	tag_store->allocate() - tag_index=143
ldst_unit::memory_cycle() - mf=0x7f7ba1515fc0 BYPASS
ldst_unit::memory_cycle() - mf=0x7f7ba1518540
TAG STORE PROBE
	addr=2147488864
	block_addr=2147488768
	tag=2147488768
	idx is LFU
	idx=71 T_MISS
	tag_store->allocate() - tag_index=71
ldst_unit::memory_cycle() - mf=0x7f7ba1518540 BYPASS
ldst_unit::memory_cycle() - mf=0x7f7ba151e0f0
TAG STORE PROBE
	addr=2147484288
	block_addr=2147484288
	tag=2147484288
	idx is LFU
	idx=47 T_MISS
	tag_store->allocate() - tag_index=47
ldst_unit::memory_cycle() - mf=0x7f7ba151e0f0 BYPASS
ldst_unit::memory_cycle() - mf=0x7f7ba151f900
TAG STORE PROBE
	addr=2147486400
	block_addr=2147486336
	tag=2147486336
	idx is LFU
	idx=174 T_MISS
	tag_store->allocate() - tag_index=174
ldst_unit::memory_cycle() - mf=0x7f7ba151f900 BYPASS
ldst_unit::memory_cycle() - mf=0x7f7ba15213e0
TAG STORE PROBE
	addr=2147491328
	block_addr=2147491328
	tag=2147491328
	idx is LFU
	idx=231 T_MISS
	tag_store->allocate() - tag_index=231
ldst_unit::memory_cycle() - mf=0x7f7ba15213e0 BYPASS
ldst_unit::memory_cycle() - delete mf=0x7f7ba15213e0
ldst_unit::memory_cycle() - mf=0x7f7ba1521960
TAG STORE PROBE
	addr=2147483712
	block_addr=2147483648
	tag=2147483648
	idx is LFU
	idx=4 T_MISS
	tag_store->allocate() - tag_index=4
ldst_unit::memory_cycle() - mf=0x7f7ba1521960 BYPASS
ldst_unit::memory_cycle() - mf=0x7f7ba15232f0
TAG STORE PROBE
	addr=2147500160
	block_addr=2147500160
	tag=2147500160
	idx is LFU
	idx=30 T_MISS
	tag_store->allocate() - tag_index=30
ldst_unit::memory_cycle() - mf=0x7f7ba15232f0 BYPASS
ldst_unit::memory_cycle() - mf=0x7f7ba15283e0
TAG STORE PROBE
	addr=2147506528
	block_addr=2147506432
	tag=2147506432
	idx is LFU
	idx=135 T_MISS
	tag_store->allocate() - tag_index=135
ldst_unit::memory_cycle() - mf=0x7f7ba15283e0 BYPASS
ldst_unit::memory_cycle() - mf=0x7f7ba1530f90
TAG STORE PROBE
	addr=2147484416
	block_addr=2147484416
	tag=2147484416
	idx is LFU
	idx=54 T_MISS
	tag_store->allocate() - tag_index=54
ldst_unit::memory_cycle() - mf=0x7f7ba1530f90 BYPASS
ldst_unit::memory_cycle() - mf=0x7f7ba1532aa0
TAG STORE PROBE
	addr=2147491328
	block_addr=2147491328
	tag=2147491328
	idx=231 T_HIT
ldst_unit::memory_cycle() - mf=0x7f7ba1532aa0 BYPASS
ldst_unit::memory_cycle() - delete mf=0x7f7ba1532aa0
ldst_unit::memory_cycle() - mf=0x7f7ba1533070
TAG STORE PROBE
	addr=2147506304
	block_addr=2147506304
	tag=2147506304
	idx is LFU
	idx=159 T_MISS
	tag_store->allocate() - tag_index=159
ldst_unit::memory_cycle() - mf=0x7f7ba1533070 BYPASS
ldst_unit::memory_cycle() - mf=0x7f7ba1534cd0
TAG STORE PROBE
	addr=2147490688
	block_addr=2147490688
	tag=2147490688
	idx is LFU
	idx=191 T_MISS
	tag_store->allocate() - tag_index=191
ldst_unit::memory_cycle() - mf=0x7f7ba1534cd0 BYPASS
ldst_unit::memory_cycle() - mf=0x7f7ba1539800
TAG STORE PROBE
	addr=2147499776
	block_addr=2147499776
	tag=2147499776
	idx is LFU
	idx=255 T_MISS
	tag_store->allocate() - tag_index=255
ldst_unit::memory_cycle() - mf=0x7f7ba1539800 BYPASS
ldst_unit::memory_cycle() - delete mf=0x7f7ba1539800
ldst_unit::memory_cycle() - mf=0x7f7ba153a5a0
TAG STORE PROBE
	addr=2147504512
	block_addr=2147504512
	tag=2147504512
	idx is LFU
	idx=15 T_MISS
	tag_store->allocate() - tag_index=15
ldst_unit::memory_cycle() - mf=0x7f7ba153a5a0 BYPASS
ldst_unit::memory_cycle() - mf=0x7f7ba1543350
TAG STORE PROBE
	addr=2147484352
	block_addr=2147484288
	tag=2147484288
	idx is LFU
	idx=46 T_MISS
	tag_store->allocate() - tag_index=46
ldst_unit::memory_cycle() - mf=0x7f7ba1543350 BYPASS
ldst_unit::memory_cycle() - mf=0x7f7ba1544da0
TAG STORE PROBE
	addr=2147491328
	block_addr=2147491328
	tag=2147491328
	idx=231 T_HIT
ldst_unit::memory_cycle() - mf=0x7f7ba1544da0 BYPASS
ldst_unit::memory_cycle() - delete mf=0x7f7ba1544da0
ldst_unit::memory_cycle() - mf=0x7f7ba1545ea0
TAG STORE PROBE
	addr=2147506240
	block_addr=2147506176
	tag=2147506176
	idx is LFU
	idx=151 T_MISS
	tag_store->allocate() - tag_index=151
ldst_unit::memory_cycle() - mf=0x7f7ba1545ea0 BYPASS
ldst_unit::memory_cycle() - mf=0x7f7ba1547980
TAG STORE PROBE
	addr=2147490624
	block_addr=2147490560
	tag=2147490560
	idx is LFU
	idx=183 T_MISS
	tag_store->allocate() - tag_index=183
ldst_unit::memory_cycle() - mf=0x7f7ba1547980 BYPASS
ldst_unit::memory_cycle() - mf=0x7f7ba154bdd0
TAG STORE PROBE
	addr=2147499776
	block_addr=2147499776
	tag=2147499776
	idx=255 T_HIT
ldst_unit::memory_cycle() - mf=0x7f7ba154bdd0 BYPASS
ldst_unit::memory_cycle() - delete mf=0x7f7ba154bdd0
ldst_unit::memory_cycle() - mf=0x7f7ba154c330
TAG STORE PROBE
	addr=2147504480
	block_addr=2147504384
	tag=2147504384
	idx is LFU
	idx=7 T_MISS
	tag_store->allocate() - tag_index=7
ldst_unit::memory_cycle() - mf=0x7f7ba154c330 BYPASS
ldst_unit::memory_cycle() - mf=0x7f7ba1557d20
TAG STORE PROBE
	addr=2147491328
	block_addr=2147491328
	tag=2147491328
	idx=231 T_HIT
ldst_unit::l1d_process_memory_access_queue() - mf=0x7f7ba1557d20
l1_cache::access() - mf=0x7f7ba1557d20
l1_cache::process_tag_probe() - mf=0x7f7ba1557d20
l1_cache::rd_miss_base() - mf=0x7f7ba1557d20
l1_cache::rd_miss_base() - mf=0x7f7ba1557d20
l1_cache::send_read_request_2() - mf=0x7f7ba1557d20
		access 2
ldst_unit::memory_cycle() - mf=0x7f7ba15598c0
TAG STORE PROBE
	addr=2147504256
	block_addr=2147504256
	tag=2147504256
	idx is LFU
	idx=31 T_MISS
	tag_store->allocate() - tag_index=31
ldst_unit::memory_cycle() - mf=0x7f7ba15598c0 BYPASS
ldst_unit::memory_cycle() - mf=0x7f7ba155be90
TAG STORE PROBE
	addr=2147488640
	block_addr=2147488640
	tag=2147488640
	idx is LFU
	idx=63 T_MISS
	tag_store->allocate() - tag_index=63
ldst_unit::memory_cycle() - mf=0x7f7ba155be90 BYPASS
ldst_unit::memory_cycle() - mf=0x7f7ba1560980
TAG STORE PROBE
	addr=2147499776
	block_addr=2147499776
	tag=2147499776
	idx=255 T_HIT
ldst_unit::memory_cycle() - mf=0x7f7ba1560980 BYPASS
ldst_unit::memory_cycle() - delete mf=0x7f7ba1560980
ldst_unit::memory_cycle() - mf=0x7f7ba1568550
TAG STORE PROBE
	addr=2147498752
	block_addr=2147498752
	tag=2147498752
	idx is LFU
	idx=191 T_MISS
	tag_store->allocate() - tag_index=191
ldst_unit::memory_cycle() - mf=0x7f7ba1568550 BYPASS
ldst_unit::memory_cycle() - mf=0x7f7ba1569fc0
TAG STORE PROBE
	addr=2147491264
	block_addr=2147491200
	tag=2147491200
	idx is LFU
	idx=223 T_MISS
	tag_store->allocate() - tag_index=223
ldst_unit::memory_cycle() - mf=0x7f7ba1569fc0 BYPASS
ldst_unit::memory_cycle() - delete mf=0x7f7ba1569fc0
ldst_unit::memory_cycle() - mf=0x7f7ba156afa0
TAG STORE PROBE
	addr=2147504192
	block_addr=2147504128
	tag=2147504128
	idx is LFU
	idx=23 T_MISS
	tag_store->allocate() - tag_index=23
ldst_unit::memory_cycle() - mf=0x7f7ba156afa0 BYPASS
ldst_unit::memory_cycle() - mf=0x7f7ba156c920
TAG STORE PROBE
	addr=2147488576
	block_addr=2147488512
	tag=2147488512
	idx is LFU
	idx=55 T_MISS
	tag_store->allocate() - tag_index=55
ldst_unit::memory_cycle() - mf=0x7f7ba156c920 BYPASS
ldst_unit::memory_cycle() - mf=0x7f7ba1571e00
TAG STORE PROBE
	addr=2147499776
	block_addr=2147499776
	tag=2147499776
	idx=255 T_HIT
ldst_unit::l1d_process_memory_access_queue() - mf=0x7f7ba1571e00
l1_cache::access() - mf=0x7f7ba1571e00
l1_cache::process_tag_probe() - mf=0x7f7ba1571e00
l1_cache::rd_miss_base() - mf=0x7f7ba1571e00
l1_cache::rd_miss_base() - mf=0x7f7ba1571e00
l1_cache::send_read_request_2() - mf=0x7f7ba1571e00
		access 2
ldst_unit::memory_cycle() - mf=0x7f7ba1456990
TAG STORE PROBE
	addr=2147490432
	block_addr=2147490432
	tag=2147490432
	idx is LFU
	idx=174 T_MISS
	tag_store->allocate() - tag_index=174
ldst_unit::memory_cycle() - mf=0x7f7ba1456990 BYPASS
ldst_unit::memory_cycle() - mf=0x7f7ba157bf00
TAG STORE PROBE
	addr=2147498688
	block_addr=2147498624
	tag=2147498624
	idx is LFU
	idx=167 T_MISS
	tag_store->allocate() - tag_index=167
ldst_unit::memory_cycle() - mf=0x7f7ba157bf00 BYPASS
ldst_unit::memory_cycle() - mf=0x7f7ba157d8c0
TAG STORE PROBE
	addr=2147491264
	block_addr=2147491200
	tag=2147491200
	idx=223 T_HIT
ldst_unit::memory_cycle() - mf=0x7f7ba157d8c0 BYPASS
ldst_unit::memory_cycle() - delete mf=0x7f7ba157d8c0
ldst_unit::memory_cycle() - mf=0x7f7ba157dec0
TAG STORE PROBE
	addr=2147490560
	block_addr=2147490560
	tag=2147490560
	idx is LFU
	idx=183 T_MISS
	tag_store->allocate() - tag_index=183
ldst_unit::memory_cycle() - mf=0x7f7ba157dec0 BYPASS
ldst_unit::memory_cycle() - mf=0x7f7ba157f950
TAG STORE PROBE
	addr=2147498880
	block_addr=2147498880
	tag=2147498880
	idx is LFU
	idx=182 T_MISS
	tag_store->allocate() - tag_index=182
ldst_unit::memory_cycle() - mf=0x7f7ba157f950 BYPASS
ldst_unit::memory_cycle() - mf=0x7f7ba1585100
TAG STORE PROBE
	addr=2147499744
	block_addr=2147499648
	tag=2147499648
	idx is LFU
	idx=231 T_MISS
	tag_store->allocate() - tag_index=231
ldst_unit::memory_cycle() - mf=0x7f7ba1585100 BYPASS
ldst_unit::memory_cycle() - delete mf=0x7f7ba1585100
ldst_unit::memory_cycle() - mf=0x7f7ba158a480
TAG STORE PROBE
	addr=2147488384
	block_addr=2147488384
	tag=2147488384
	idx is LFU
	idx=46 T_MISS
	tag_store->allocate() - tag_index=46
ldst_unit::memory_cycle() - mf=0x7f7ba158a480 BYPASS
ldst_unit::memory_cycle() - mf=0x7f7ba158a170
TAG STORE PROBE
	addr=2147496704
	block_addr=2147496704
	tag=2147496704
	idx is LFU
	idx=63 T_MISS
	tag_store->allocate() - tag_index=63
ldst_unit::memory_cycle() - mf=0x7f7ba158a170 BYPASS
ldst_unit::memory_cycle() - mf=0x7f7ba158d2b0
TAG STORE PROBE
	addr=2147491264
	block_addr=2147491200
	tag=2147491200
	idx=223 T_HIT
ldst_unit::memory_cycle() - mf=0x7f7ba158d2b0 BYPASS
ldst_unit::memory_cycle() - delete mf=0x7f7ba158d2b0
ldst_unit::memory_cycle() - mf=0x7f7ba158c200
TAG STORE PROBE
	addr=2147488512
	block_addr=2147488512
	tag=2147488512
	idx is LFU
	idx=55 T_MISS
	tag_store->allocate() - tag_index=55
ldst_unit::memory_cycle() - mf=0x7f7ba158c200 BYPASS
ldst_unit::memory_cycle() - delete mf=0x7f7ba158c200
ldst_unit::memory_cycle() - mf=0x7f7ba158e440
TAG STORE PROBE
	addr=2147498816
	block_addr=2147498752
	tag=2147498752
	idx is LFU
	idx=190 T_MISS
	tag_store->allocate() - tag_index=190
ldst_unit::memory_cycle() - mf=0x7f7ba158e440 BYPASS
ldst_unit::memory_cycle() - mf=0x7f7ba1590850
TAG STORE PROBE
	addr=2147498112
	block_addr=2147498112
	tag=2147498112
	idx is LFU
	idx=135 T_MISS
	tag_store->allocate() - tag_index=135
ldst_unit::memory_cycle() - mf=0x7f7ba1590850 BYPASS
ldst_unit::memory_cycle() - mf=0x7f7ba15945d0
TAG STORE PROBE
	addr=2147499744
	block_addr=2147499648
	tag=2147499648
	idx=231 T_HIT
ldst_unit::memory_cycle() - mf=0x7f7ba15945d0 BYPASS
ldst_unit::memory_cycle() - delete mf=0x7f7ba15945d0
ldst_unit::memory_cycle() - mf=0x7f7ba159b9a0
TAG STORE PROBE
	addr=2147496640
	block_addr=2147496576
	tag=2147496576
	idx is LFU
	idx=39 T_MISS
	tag_store->allocate() - tag_index=39
ldst_unit::memory_cycle() - mf=0x7f7ba159b9a0 BYPASS
ldst_unit::memory_cycle() - mf=0x7f7ba159b420
TAG STORE PROBE
	addr=2147491264
	block_addr=2147491200
	tag=2147491200
	idx=223 T_HIT
ldst_unit::l1d_process_memory_access_queue() - mf=0x7f7ba159b420
l1_cache::access() - mf=0x7f7ba159b420
l1_cache::process_tag_probe() - mf=0x7f7ba159b420
l1_cache::rd_miss_base() - mf=0x7f7ba159b420
l1_cache::rd_miss_base() - mf=0x7f7ba159b420
l1_cache::send_read_request_2() - mf=0x7f7ba159b420
		access 2
ldst_unit::memory_cycle() - mf=0x7f7ba159cfb0
TAG STORE PROBE
	addr=2147488512
	block_addr=2147488512
	tag=2147488512
	idx=55 T_HIT
ldst_unit::memory_cycle() - mf=0x7f7ba159cfb0 BYPASS
ldst_unit::memory_cycle() - mf=0x7f7ba15a0d40
TAG STORE PROBE
	addr=2147496832
	block_addr=2147496832
	tag=2147496832
	idx is LFU
	idx=54 T_MISS
	tag_store->allocate() - tag_index=54
ldst_unit::memory_cycle() - mf=0x7f7ba15a0d40 BYPASS
ldst_unit::memory_cycle() - mf=0x7f7ba15a28c0
TAG STORE PROBE
	addr=2147496064
	block_addr=2147496064
	tag=2147496064
	idx is LFU
	idx=7 T_MISS
	tag_store->allocate() - tag_index=7
ldst_unit::memory_cycle() - mf=0x7f7ba15a28c0 BYPASS
ldst_unit::memory_cycle() - mf=0x7f7ba15a6700
TAG STORE PROBE
	addr=2147499744
	block_addr=2147499648
	tag=2147499648
	idx=231 T_HIT
ldst_unit::memory_cycle() - mf=0x7f7ba15a6700 BYPASS
ldst_unit::memory_cycle() - mf=0x7f7ba152f700
TAG STORE PROBE
	addr=2147498624
	block_addr=2147498624
	tag=2147498624
	idx is LFU
	idx=167 T_MISS
	tag_store->allocate() - tag_index=167
ldst_unit::memory_cycle() - mf=0x7f7ba152f700 BYPASS
ldst_unit::memory_cycle() - mf=0x7f7ba15ad900
TAG STORE PROBE
	addr=2147506944
	block_addr=2147506944
	tag=2147506944
	idx is LFU
	idx=166 T_MISS
	tag_store->allocate() - tag_index=166
ldst_unit::memory_cycle() - mf=0x7f7ba15ad900 BYPASS
ldst_unit::memory_cycle() - mf=0x7f7ba15ad370
TAG STORE PROBE
	addr=2147489280
	block_addr=2147489280
	tag=2147489280
	idx is LFU
	idx=103 T_MISS
	tag_store->allocate() - tag_index=103
ldst_unit::memory_cycle() - mf=0x7f7ba15ad370 BYPASS
ldst_unit::memory_cycle() - delete mf=0x7f7ba15ad370
ldst_unit::memory_cycle() - mf=0x7f7ba15af370
TAG STORE PROBE
	addr=2147506944
	block_addr=2147506944
	tag=2147506944
	idx is LFU
	idx=167 T_MISS
	tag_store->allocate() - tag_index=167
ldst_unit::memory_cycle() - mf=0x7f7ba15af370 BYPASS
ldst_unit::memory_cycle() - delete mf=0x7f7ba15af370
ldst_unit::memory_cycle() - mf=0x7f7ba15affa0
TAG STORE PROBE
	addr=2147496768
	block_addr=2147496704
	tag=2147496704
	idx is LFU
	idx=62 T_MISS
	tag_store->allocate() - tag_index=62
ldst_unit::memory_cycle() - mf=0x7f7ba15affa0 BYPASS
ldst_unit::memory_cycle() - mf=0x7f7ba15b5580
TAG STORE PROBE
	addr=2147497728
	block_addr=2147497728
	tag=2147497728
	idx is LFU
	idx=127 T_MISS
	tag_store->allocate() - tag_index=127
ldst_unit::memory_cycle() - mf=0x7f7ba15b5580 BYPASS
ldst_unit::memory_cycle() - delete mf=0x7f7ba15b5580
ldst_unit::memory_cycle() - mf=0x7f7ba15bb4d0
TAG STORE PROBE
	addr=2147496576
	block_addr=2147496576
	tag=2147496576
	idx is LFU
	idx=39 T_MISS
	tag_store->allocate() - tag_index=39
ldst_unit::memory_cycle() - mf=0x7f7ba15bb4d0 BYPASS
ldst_unit::memory_cycle() - mf=0x7f7ba15bb280
TAG STORE PROBE
	addr=2147506880
	block_addr=2147506816
	tag=2147506816
	idx is LFU
	idx=190 T_MISS
	tag_store->allocate() - tag_index=190
ldst_unit::memory_cycle() - mf=0x7f7ba15bb280 BYPASS
ldst_unit::memory_cycle() - mf=0x7f7ba15bc890
TAG STORE PROBE
	addr=2147489280
	block_addr=2147489280
	tag=2147489280
	idx=103 T_HIT
ldst_unit::memory_cycle() - mf=0x7f7ba15bc890 BYPASS
ldst_unit::memory_cycle() - delete mf=0x7f7ba15bc890
ldst_unit::memory_cycle() - mf=0x7f7ba064a310
TAG STORE PROBE
	addr=2147506944
	block_addr=2147506944
	tag=2147506944
	idx=167 T_HIT
ldst_unit::memory_cycle() - mf=0x7f7ba064a310 BYPASS
ldst_unit::memory_cycle() - delete mf=0x7f7ba064a310
ldst_unit::memory_cycle() - mf=0x7f7ba15c24f0
TAG STORE PROBE
	addr=2147507072
	block_addr=2147507072
	tag=2147507072
	idx is LFU
	idx=175 T_MISS
	tag_store->allocate() - tag_index=175
ldst_unit::memory_cycle() - mf=0x7f7ba15c24f0 BYPASS
ldst_unit::memory_cycle() - mf=0x7f7ba15c6f60
TAG STORE PROBE
	addr=2147497728
	block_addr=2147497728
	tag=2147497728
	idx=127 T_HIT
ldst_unit::memory_cycle() - mf=0x7f7ba15c6f60 BYPASS
ldst_unit::memory_cycle() - delete mf=0x7f7ba15c6f60
ldst_unit::memory_cycle() - mf=0x7f7ba15d0540
TAG STORE PROBE
	addr=2147504896
	block_addr=2147504896
	tag=2147504896
	idx is LFU
	idx=38 T_MISS
	tag_store->allocate() - tag_index=38
ldst_unit::memory_cycle() - mf=0x7f7ba15d0540 BYPASS
ldst_unit::memory_cycle() - mf=0x7f7ba15cffb0
TAG STORE PROBE
	addr=2147489280
	block_addr=2147489280
	tag=2147489280
	idx=103 T_HIT
ldst_unit::memory_cycle() - mf=0x7f7ba15cffb0 BYPASS
ldst_unit::memory_cycle() - delete mf=0x7f7ba15cffb0
ldst_unit::memory_cycle() - mf=0x7f7ba15cffb0
TAG STORE PROBE
	addr=2147506944
	block_addr=2147506944
	tag=2147506944
	idx=167 T_HIT
ldst_unit::memory_cycle() - mf=0x7f7ba15cffb0 BYPASS
ldst_unit::memory_cycle() - delete mf=0x7f7ba15cffb0
ldst_unit::memory_cycle() - mf=0x7f7ba15d24e0
TAG STORE PROBE
	addr=2147507008
	block_addr=2147506944
	tag=2147506944
	idx is LFU
	idx=167 T_MISS
	tag_store->allocate() - tag_index=167
ldst_unit::memory_cycle() - mf=0x7f7ba15d24e0 BYPASS
ldst_unit::memory_cycle() - mf=0x7f7ba15d5d50
TAG STORE PROBE
	addr=2147497728
	block_addr=2147497728
	tag=2147497728
	idx=127 T_HIT
ldst_unit::memory_cycle() - mf=0x7f7ba15d5d50 BYPASS
ldst_unit::memory_cycle() - delete mf=0x7f7ba15d5d50
ldst_unit::memory_cycle() - mf=0x7f7ba15dcb10
TAG STORE PROBE
	addr=2147506816
	block_addr=2147506816
	tag=2147506816
	idx is LFU
	idx=191 T_MISS
	tag_store->allocate() - tag_index=191
ldst_unit::memory_cycle() - mf=0x7f7ba15dcb10 BYPASS
ldst_unit::memory_cycle() - mf=0x7f7ba15de320
TAG STORE PROBE
	addr=2147504832
	block_addr=2147504768
	tag=2147504768
	idx is LFU
	idx=62 T_MISS
	tag_store->allocate() - tag_index=62
ldst_unit::memory_cycle() - mf=0x7f7ba15de320 BYPASS
ldst_unit::memory_cycle() - mf=0x7f7ba15ddd20
TAG STORE PROBE
	addr=2147489280
	block_addr=2147489280
	tag=2147489280
	idx=103 T_HIT
ldst_unit::l1d_process_memory_access_queue() - mf=0x7f7ba15ddd20
l1_cache::access() - mf=0x7f7ba15ddd20
l1_cache::process_tag_probe() - mf=0x7f7ba15ddd20
l1_cache::rd_miss_base() - mf=0x7f7ba15ddd20
l1_cache::rd_miss_base() - mf=0x7f7ba15ddd20
l1_cache::send_read_request_2() - mf=0x7f7ba15ddd20
		access 2
ldst_unit::memory_cycle() - mf=0x7f7ba15e1a30
TAG STORE PROBE
	addr=2147506944
	block_addr=2147506944
	tag=2147506944
	idx=167 T_HIT
ldst_unit::l1d_process_memory_access_queue() - mf=0x7f7ba15e1a30
l1_cache::access() - mf=0x7f7ba15e1a30
l1_cache::process_tag_probe() - mf=0x7f7ba15e1a30
l1_cache::rd_miss_base() - mf=0x7f7ba15e1a30
l1_cache::rd_miss_base() - mf=0x7f7ba15e1a30
l1_cache::send_read_request_2() - mf=0x7f7ba15e1a30
		access 2
ldst_unit::memory_cycle() - mf=0x7f7ba15e14d0
TAG STORE PROBE
	addr=2147505024
	block_addr=2147505024
	tag=2147505024
	idx is LFU
	idx=47 T_MISS
	tag_store->allocate() - tag_index=47
ldst_unit::memory_cycle() - mf=0x7f7ba15e14d0 BYPASS
ldst_unit::memory_cycle() - mf=0x7f7ba15e6d50
TAG STORE PROBE
	addr=2147497728
	block_addr=2147497728
	tag=2147497728
	idx=127 T_HIT
ldst_unit::l1d_process_memory_access_queue() - mf=0x7f7ba15e6d50
l1_cache::access() - mf=0x7f7ba15e6d50
l1_cache::process_tag_probe() - mf=0x7f7ba15e6d50
l1_cache::rd_miss_base() - mf=0x7f7ba15e6d50
l1_cache::rd_miss_base() - mf=0x7f7ba15e6d50
l1_cache::send_read_request_2() - mf=0x7f7ba15e6d50
		access 2
ldst_unit::memory_cycle() - mf=0x7f7ba15e8f40
TAG STORE PROBE
	addr=2147494272
	block_addr=2147494272
	tag=2147494272
	idx is LFU
	idx=150 T_MISS
	tag_store->allocate() - tag_index=150
ldst_unit::memory_cycle() - mf=0x7f7ba15e8f40 BYPASS
ldst_unit::memory_cycle() - mf=0x7f7ba1599890
TAG STORE PROBE
	addr=2147504768
	block_addr=2147504768
	tag=2147504768
	idx is LFU
	idx=63 T_MISS
	tag_store->allocate() - tag_index=63
ldst_unit::memory_cycle() - mf=0x7f7ba1599890 BYPASS
ldst_unit::memory_cycle() - mf=0x7f7ba15f0ff0
TAG STORE PROBE
	addr=2147491200
	block_addr=2147491200
	tag=2147491200
	idx is LFU
	idx=223 T_MISS
	tag_store->allocate() - tag_index=223
ldst_unit::memory_cycle() - mf=0x7f7ba15f0ff0 BYPASS
ldst_unit::memory_cycle() - delete mf=0x7f7ba15f0ff0
ldst_unit::memory_cycle() - mf=0x7f7ba15f15b0
TAG STORE PROBE
	addr=2147489216
	block_addr=2147489152
	tag=2147489152
	idx is LFU
	idx=95 T_MISS
	tag_store->allocate() - tag_index=95
ldst_unit::memory_cycle() - mf=0x7f7ba15f15b0 BYPASS
ldst_unit::memory_cycle() - delete mf=0x7f7ba15f15b0
ldst_unit::memory_cycle() - mf=0x7f7ba15f2230
TAG STORE PROBE
	addr=2147504896
	block_addr=2147504896
	tag=2147504896
	idx is LFU
	idx=39 T_MISS
	tag_store->allocate() - tag_index=39
ldst_unit::memory_cycle() - mf=0x7f7ba15f2230 BYPASS
ldst_unit::memory_cycle() - delete mf=0x7f7ba15f2230
ldst_unit::memory_cycle() - mf=0x7f7ba15f3940
TAG STORE PROBE
	addr=2147504960
	block_addr=2147504896
	tag=2147504896
	idx is LFU
	idx=39 T_MISS
	tag_store->allocate() - tag_index=39
ldst_unit::memory_cycle() - mf=0x7f7ba15f3940 BYPASS
[...]
l1_cache::process_tag_probe() - mf=0x7f7ba1ce45d0
l1_cache::rd_miss_base() - mf=0x7f7ba1ce45d0
l1_cache::rd_miss_base() - mf=0x7f7ba1ce45d0
l1_cache::send_read_request_2() - mf=0x7f7ba1ce45d0
ldst_unit::writeback() - m_next_global_block_addr=2147488512
ldst_unit::memory_cycle() - mf=0x7f7ba1ce45d0
TAG STORE PROBE
	addr=2147493344
	block_addr=2147493248
	tag=2147493248
	idx=86 T_HIT
ldst_unit::l1d_process_memory_access_queue() - mf=0x7f7ba1ce45d0
l1_cache::access() - mf=0x7f7ba1ce45d0
l1_cache::process_tag_probe() - mf=0x7f7ba1ce45d0
l1_cache::rd_miss_base() - mf=0x7f7ba1ce45d0
l1_cache::rd_miss_base() - mf=0x7f7ba1ce45d0
l1_cache::send_read_request_2() - mf=0x7f7ba1ce45d0
ldst_unit::memory_cycle() - mf=0x7f7ba159f400
TAG STORE PROBE
	addr=2147503232
	block_addr=2147503232
	tag=2147503232
	idx=222 T_HIT
ldst_unit::l1d_process_memory_access_queue() - mf=0x7f7ba159f400
l1_cache::access() - mf=0x7f7ba159f400
l1_cache::process_tag_probe() - mf=0x7f7ba159f400
l1_cache::rd_miss_base() - mf=0x7f7ba159f400
l1_cache::rd_miss_base() - mf=0x7f7ba159f400
l1_cache::send_read_request_2() - mf=0x7f7ba159f400
ldst_unit::memory_cycle() - mf=0x7f7ba159f400
TAG STORE PROBE
	addr=2147487616
	block_addr=2147487616
	tag=2147487616
	idx=253 T_HIT
ldst_unit::l1d_process_memory_access_queue() - mf=0x7f7ba159f400
l1_cache::access() - mf=0x7f7ba159f400
l1_cache::process_tag_probe() - mf=0x7f7ba159f400
l1_cache::rd_miss_base() - mf=0x7f7ba159f400
l1_cache::rd_miss_base() - mf=0x7f7ba159f400
l1_cache::send_read_request_2() - mf=0x7f7ba159f400
ldst_unit::memory_cycle() - mf=0x7f7ba140b2d0
TAG STORE PROBE
	addr=2147493728
	block_addr=2147493632
	tag=2147493632
	idx=124 T_HIT
ldst_unit::l1d_process_memory_access_queue() - mf=0x7f7ba140b2d0
l1_cache::access() - mf=0x7f7ba140b2d0
l1_cache::process_tag_probe() - mf=0x7f7ba140b2d0
l1_cache::rd_miss_base() - mf=0x7f7ba140b2d0
l1_cache::rd_miss_base() - mf=0x7f7ba140b2d0
l1_cache::send_read_request_2() - mf=0x7f7ba140b2d0
ldst_unit::memory_cycle() - mf=0x7f7ba140b2d0
TAG STORE PROBE
	addr=2147501952
	block_addr=2147501952
	tag=2147501952
	idx=110 T_HIT
ldst_unit::l1d_process_memory_access_queue() - mf=0x7f7ba140b2d0
l1_cache::access() - mf=0x7f7ba140b2d0
l1_cache::process_tag_probe() - mf=0x7f7ba140b2d0
l1_cache::rd_miss_base() - mf=0x7f7ba140b2d0
l1_cache::rd_miss_base() - mf=0x7f7ba140b2d0
l1_cache::send_read_request_2() - mf=0x7f7ba140b2d0
ldst_unit::memory_cycle() - mf=0x7f7ba159f9d0
TAG STORE PROBE
	addr=2147511552
	block_addr=2147511552
	tag=2147511552
	idx=207 T_HIT
ldst_unit::l1d_process_memory_access_queue() - mf=0x7f7ba159f9d0
l1_cache::access() - mf=0x7f7ba159f9d0
l1_cache::process_tag_probe() - mf=0x7f7ba159f9d0
l1_cache::rd_miss_base() - mf=0x7f7ba159f9d0
l1_cache::rd_miss_base() - mf=0x7f7ba159f9d0
l1_cache::send_read_request_2() - mf=0x7f7ba159f9d0
ldst_unit::memory_cycle() - mf=0x7f7ba1e16b40
TAG STORE PROBE
	addr=2147501440
	block_addr=2147501440
	tag=2147501440
	idx=78 T_HIT
ldst_unit::l1d_process_memory_access_queue() - mf=0x7f7ba1e16b40
l1_cache::access() - mf=0x7f7ba1e16b40
l1_cache::process_tag_probe() - mf=0x7f7ba1e16b40
l1_cache::rd_miss_base() - mf=0x7f7ba1e16b40
l1_cache::rd_miss_base() - mf=0x7f7ba1e16b40
l1_cache::send_read_request_2() - mf=0x7f7ba1e16b40
ldst_unit::memory_cycle() - mf=0x7f7ba1e16930
TAG STORE PROBE
	addr=2147493344
	block_addr=2147493248
	tag=2147493248
	idx=86 T_HIT
ldst_unit::l1d_process_memory_access_queue() - mf=0x7f7ba1e16930
l1_cache::access() - mf=0x7f7ba1e16930
l1_cache::process_tag_probe() - mf=0x7f7ba1e16930
l1_cache::rd_miss_base() - mf=0x7f7ba1e16930
l1_cache::rd_miss_base() - mf=0x7f7ba1e16930
l1_cache::send_read_request_2() - mf=0x7f7ba1e16930
ldst_unit::cycle() - mf=0x7f7ba17c3050
TAG STORE PROBE
	addr=2147487872
	block_addr=2147487872
	tag=2147487872
	idx=14 T_HIT
In TS, but rc <=2
peek result - 2
ldst_unit::memory_cycle() - mf=0x7f7ba1e1c900
TAG STORE PROBE
	addr=2147503232
	block_addr=2147503232
	tag=2147503232
	idx=222 T_HIT
ldst_unit::l1d_process_memory_access_queue() - mf=0x7f7ba1e1c900
l1_cache::access() - mf=0x7f7ba1e1c900
l1_cache::process_tag_probe() - mf=0x7f7ba1e1c900
l1_cache::rd_miss_base() - mf=0x7f7ba1e1c900
l1_cache::rd_miss_base() - mf=0x7f7ba1e1c900
l1_cache::send_read_request_2() - mf=0x7f7ba1e1c900
ldst_unit::memory_cycle() - mf=0x7f7ba1e1c900
TAG STORE PROBE
	addr=2147487616
	block_addr=2147487616
	tag=2147487616
	idx=253 T_HIT
ldst_unit::l1d_process_memory_access_queue() - mf=0x7f7ba1e1c900
l1_cache::access() - mf=0x7f7ba1e1c900
l1_cache::process_tag_probe() - mf=0x7f7ba1e1c900
l1_cache::rd_miss_base() - mf=0x7f7ba1e1c900
l1_cache::rd_miss_base() - mf=0x7f7ba1e1c900
l1_cache::send_read_request_2() - mf=0x7f7ba1e1c900
ldst_unit::memory_cycle() - mf=0x7f7ba1e1c900
TAG STORE PROBE
	addr=2147493728
	block_addr=2147493632
	tag=2147493632
	idx=124 T_HIT
ldst_unit::l1d_process_memory_access_queue() - mf=0x7f7ba1e1c900
l1_cache::access() - mf=0x7f7ba1e1c900
l1_cache::process_tag_probe() - mf=0x7f7ba1e1c900
l1_cache::rd_miss_base() - mf=0x7f7ba1e1c900
l1_cache::rd_miss_base() - mf=0x7f7ba1e1c900
l1_cache::send_read_request_2() - mf=0x7f7ba1e1c900
ldst_unit::memory_cycle() - mf=0x7f7ba1e1c900
TAG STORE PROBE
	addr=2147501952
	block_addr=2147501952
	tag=2147501952
	idx=110 T_HIT
ldst_unit::l1d_process_memory_access_queue() - mf=0x7f7ba1e1c900
l1_cache::access() - mf=0x7f7ba1e1c900
l1_cache::process_tag_probe() - mf=0x7f7ba1e1c900
l1_cache::rd_miss_base() - mf=0x7f7ba1e1c900
l1_cache::rd_miss_base() - mf=0x7f7ba1e1c900
l1_cache::send_read_request_2() - mf=0x7f7ba1e1c900
ldst_unit::memory_cycle() - mf=0x7f7ba1e1ced0
TAG STORE PROBE
	addr=2147511552
	block_addr=2147511552
	tag=2147511552
	idx=207 T_HIT
ldst_unit::l1d_process_memory_access_queue() - mf=0x7f7ba1e1ced0
l1_cache::access() - mf=0x7f7ba1e1ced0
l1_cache::process_tag_probe() - mf=0x7f7ba1e1ced0
l1_cache::rd_miss_base() - mf=0x7f7ba1e1ced0
l1_cache::rd_miss_base() - mf=0x7f7ba1e1ced0
l1_cache::send_read_request_2() - mf=0x7f7ba1e1ced0
ldst_unit::memory_cycle() - mf=0x7f7ba1e1d540
TAG STORE PROBE
	addr=2147501440
	block_addr=2147501440
	tag=2147501440
	idx=78 T_HIT
ldst_unit::l1d_process_memory_access_queue() - mf=0x7f7ba1e1d540
l1_cache::access() - mf=0x7f7ba1e1d540
l1_cache::process_tag_probe() - mf=0x7f7ba1e1d540
l1_cache::rd_miss_base() - mf=0x7f7ba1e1d540
l1_cache::rd_miss_base() - mf=0x7f7ba1e1d540
l1_cache::send_read_request_2() - mf=0x7f7ba1e1d540
ldst_unit::memory_cycle() - mf=0x7f7ba1e1e680
TAG STORE PROBE
	addr=2147493344
	block_addr=2147493248
	tag=2147493248
	idx=86 T_HIT
ldst_unit::l1d_process_memory_access_queue() - mf=0x7f7ba1e1e680
l1_cache::access() - mf=0x7f7ba1e1e680
l1_cache::process_tag_probe() - mf=0x7f7ba1e1e680
l1_cache::rd_miss_base() - mf=0x7f7ba1e1e680
l1_cache::rd_miss_base() - mf=0x7f7ba1e1e680
l1_cache::send_read_request_2() - mf=0x7f7ba1e1e680
ldst_unit::writeback() - m_next_global_block_addr=2147487872
ldst_unit::cycle() - mf=0x7f7ba1840450
TAG STORE PROBE
	addr=2147504384
	block_addr=2147504384
	tag=2147504384
	idx=7 T_HIT
In TS, but rc <=2
peek result - 2
ldst_unit::memory_cycle() - mf=0x7f7ba1e1f3a0
TAG STORE PROBE
	addr=2147503232
	block_addr=2147503232
	tag=2147503232
	idx=222 T_HIT
ldst_unit::l1d_process_memory_access_queue() - mf=0x7f7ba1e1f3a0
l1_cache::access() - mf=0x7f7ba1e1f3a0
l1_cache::process_tag_probe() - mf=0x7f7ba1e1f3a0
l1_cache::rd_miss_base() - mf=0x7f7ba1e1f3a0
l1_cache::rd_miss_base() - mf=0x7f7ba1e1f3a0
l1_cache::send_read_request_2() - mf=0x7f7ba1e1f3a0
ldst_unit::cycle() - mf=0x7f7ba14c4af0
TAG STORE PROBE
	addr=2147496320
	block_addr=2147496320
	tag=2147496320
	idx=23 T_HIT
In TS, but rc <=2
peek result - 2
ldst_unit::memory_cycle() - mf=0x7f7ba1e1f3a0
TAG STORE PROBE
	addr=2147487616
	block_addr=2147487616
	tag=2147487616
	idx=253 T_HIT
ldst_unit::l1d_process_memory_access_queue() - mf=0x7f7ba1e1f3a0
l1_cache::access() - mf=0x7f7ba1e1f3a0
l1_cache::process_tag_probe() - mf=0x7f7ba1e1f3a0
l1_cache::rd_miss_base() - mf=0x7f7ba1e1f3a0
l1_cache::rd_miss_base() - mf=0x7f7ba1e1f3a0
l1_cache::send_read_request_2() - mf=0x7f7ba1e1f3a0
ldst_unit::memory_cycle() - mf=0x7f7ba1e1f300
TAG STORE PROBE
	addr=2147493728
	block_addr=2147493632
	tag=2147493632
	idx=124 T_HIT
ldst_unit::l1d_process_memory_access_queue() - mf=0x7f7ba1e1f300
l1_cache::access() - mf=0x7f7ba1e1f300
l1_cache::process_tag_probe() - mf=0x7f7ba1e1f300
l1_cache::rd_miss_base() - mf=0x7f7ba1e1f300
l1_cache::rd_miss_base() - mf=0x7f7ba1e1f300
l1_cache::send_read_request_2() - mf=0x7f7ba1e1f300
ldst_unit::memory_cycle() - mf=0x7f7ba1e1f300
TAG STORE PROBE
	addr=2147501952
	block_addr=2147501952
	tag=2147501952
	idx=110 T_HIT
ldst_unit::l1d_process_memory_access_queue() - mf=0x7f7ba1e1f300
l1_cache::access() - mf=0x7f7ba1e1f300
l1_cache::process_tag_probe() - mf=0x7f7ba1e1f300
l1_cache::rd_miss_base() - mf=0x7f7ba1e1f300
l1_cache::rd_miss_base() - mf=0x7f7ba1e1f300
l1_cache::send_read_request_2() - mf=0x7f7ba1e1f300
ldst_unit::memory_cycle() - mf=0x7f7ba1e1f300
TAG STORE PROBE
	addr=2147511552
	block_addr=2147511552
	tag=2147511552
	idx=207 T_HIT
ldst_unit::l1d_process_memory_access_queue() - mf=0x7f7ba1e1f300
l1_cache::access() - mf=0x7f7ba1e1f300
l1_cache::process_tag_probe() - mf=0x7f7ba1e1f300
l1_cache::rd_miss_base() - mf=0x7f7ba1e1f300
l1_cache::rd_miss_base() - mf=0x7f7ba1e1f300
l1_cache::send_read_request_2() - mf=0x7f7ba1e1f300
ldst_unit::memory_cycle() - mf=0x7f7ba1e200a0
TAG STORE PROBE
	addr=2147501440
	block_addr=2147501440
	tag=2147501440
	idx=78 T_HIT
ldst_unit::l1d_process_memory_access_queue() - mf=0x7f7ba1e200a0
l1_cache::access() - mf=0x7f7ba1e200a0
l1_cache::process_tag_probe() - mf=0x7f7ba1e200a0
l1_cache::rd_miss_base() - mf=0x7f7ba1e200a0
l1_cache::rd_miss_base() - mf=0x7f7ba1e200a0
l1_cache::send_read_request_2() - mf=0x7f7ba1e200a0
ldst_unit::cycle() - mf=0x7f7ba14fa500
TAG STORE PROBE
	addr=2147485760
	block_addr=2147485696
	tag=2147485696
	idx=132 T_HIT
In TS, but rc <=2
peek result - 2
ldst_unit::memory_cycle() - mf=0x7f7ba1e200a0
TAG STORE PROBE
	addr=2147493344
	block_addr=2147493248
	tag=2147493248
	idx=86 T_HIT
ldst_unit::l1d_process_memory_access_queue() - mf=0x7f7ba1e200a0
l1_cache::access() - mf=0x7f7ba1e200a0
l1_cache::process_tag_probe() - mf=0x7f7ba1e200a0
l1_cache::rd_miss_base() - mf=0x7f7ba1e200a0
l1_cache::rd_miss_base() - mf=0x7f7ba1e200a0
l1_cache::send_read_request_2() - mf=0x7f7ba1e200a0
ldst_unit::writeback() - m_next_global_block_addr=2147504384
ldst_unit::memory_cycle() - mf=0x7f7ba1840450
TAG STORE PROBE
	addr=2147503232
	block_addr=2147503232
	tag=2147503232
	idx=222 T_HIT
ldst_unit::l1d_process_memory_access_queue() - mf=0x7f7ba1840450
l1_cache::access() - mf=0x7f7ba1840450
l1_cache::process_tag_probe() - mf=0x7f7ba1840450
l1_cache::rd_miss_base() - mf=0x7f7ba1840450
l1_cache::rd_miss_base() - mf=0x7f7ba1840450
l1_cache::send_read_request_2() - mf=0x7f7ba1840450
ldst_unit::writeback() - m_next_global_block_addr=2147496320
ldst_unit::memory_cycle() - mf=0x7f7ba1840450
TAG STORE PROBE
	addr=2147487616
	block_addr=2147487616
	tag=2147487616
	idx=253 T_HIT
ldst_unit::l1d_process_memory_access_queue() - mf=0x7f7ba1840450
l1_cache::access() - mf=0x7f7ba1840450
l1_cache::process_tag_probe() - mf=0x7f7ba1840450
l1_cache::rd_miss_base() - mf=0x7f7ba1840450
l1_cache::rd_miss_base() - mf=0x7f7ba1840450
l1_cache::send_read_request_2() - mf=0x7f7ba1840450
ldst_unit::memory_cycle() - mf=0x7f7ba1840450
TAG STORE PROBE
	addr=2147493728
	block_addr=2147493632
	tag=2147493632
	idx=124 T_HIT
ldst_unit::l1d_process_memory_access_queue() - mf=0x7f7ba1840450
l1_cache::access() - mf=0x7f7ba1840450
l1_cache::process_tag_probe() - mf=0x7f7ba1840450
l1_cache::rd_miss_base() - mf=0x7f7ba1840450
l1_cache::rd_miss_base() - mf=0x7f7ba1840450
l1_cache::send_read_request_2() - mf=0x7f7ba1840450
ldst_unit::memory_cycle() - mf=0x7f7ba1840450
TAG STORE PROBE
	addr=2147501952
	block_addr=2147501952
	tag=2147501952
	idx=110 T_HIT
ldst_unit::l1d_process_memory_access_queue() - mf=0x7f7ba1840450
l1_cache::access() - mf=0x7f7ba1840450
l1_cache::process_tag_probe() - mf=0x7f7ba1840450
l1_cache::rd_miss_base() - mf=0x7f7ba1840450
l1_cache::rd_miss_base() - mf=0x7f7ba1840450
l1_cache::send_read_request_2() - mf=0x7f7ba1840450
ldst_unit::memory_cycle() - mf=0x7f7ba14c4af0
TAG STORE PROBE
	addr=2147511552
	block_addr=2147511552
	tag=2147511552
	idx=207 T_HIT
ldst_unit::l1d_process_memory_access_queue() - mf=0x7f7ba14c4af0
l1_cache::access() - mf=0x7f7ba14c4af0
l1_cache::process_tag_probe() - mf=0x7f7ba14c4af0
l1_cache::rd_miss_base() - mf=0x7f7ba14c4af0
l1_cache::rd_miss_base() - mf=0x7f7ba14c4af0
l1_cache::send_read_request_2() - mf=0x7f7ba14c4af0
ldst_unit::memory_cycle() - mf=0x7f7ba14c5600
TAG STORE PROBE
	addr=2147501440
	block_addr=2147501440
	tag=2147501440
	idx=78 T_HIT
ldst_unit::l1d_process_memory_access_queue() - mf=0x7f7ba14c5600
l1_cache::access() - mf=0x7f7ba14c5600
l1_cache::process_tag_probe() - mf=0x7f7ba14c5600
l1_cache::rd_miss_base() - mf=0x7f7ba14c5600
l1_cache::rd_miss_base() - mf=0x7f7ba14c5600
l1_cache::send_read_request_2() - mf=0x7f7ba14c5600
ldst_unit::writeback() - m_next_global_block_addr=2147485696
ldst_unit::memory_cycle() - mf=0x7f7ba14c5600
TAG STORE PROBE
	addr=2147493344
	block_addr=2147493248
	tag=2147493248
	idx=86 T_HIT
ldst_unit::l1d_process_memory_access_queue() - mf=0x7f7ba14c5600
l1_cache::access() - mf=0x7f7ba14c5600
l1_cache::process_tag_probe() - mf=0x7f7ba14c5600
l1_cache::rd_miss_base() - mf=0x7f7ba14c5600
l1_cache::rd_miss_base() - mf=0x7f7ba14c5600
l1_cache::send_read_request_2() - mf=0x7f7ba14c5600
ldst_unit::memory_cycle() - mf=0x7f7ba14fb010
TAG STORE PROBE
	addr=2147503232
	block_addr=2147503232
	tag=2147503232
	idx=222 T_HIT
ldst_unit::l1d_process_memory_access_queue() - mf=0x7f7ba14fb010
l1_cache::access() - mf=0x7f7ba14fb010
l1_cache::process_tag_probe() - mf=0x7f7ba14fb010
l1_cache::rd_miss_base() - mf=0x7f7ba14fb010
l1_cache::rd_miss_base() - mf=0x7f7ba14fb010
l1_cache::send_read_request_2() - mf=0x7f7ba14fb010
ldst_unit::memory_cycle() - mf=0x7f7ba14fb010
TAG STORE PROBE
	addr=2147487616
	block_addr=2147487616
	tag=2147487616
	idx=253 T_HIT
ldst_unit::l1d_process_memory_access_queue() - mf=0x7f7ba14fb010
l1_cache::access() - mf=0x7f7ba14fb010
l1_cache::process_tag_probe() - mf=0x7f7ba14fb010
l1_cache::rd_miss_base() - mf=0x7f7ba14fb010
l1_cache::rd_miss_base() - mf=0x7f7ba14fb010
l1_cache::send_read_request_2() - mf=0x7f7ba14fb010
ldst_unit::memory_cycle() - mf=0x7f7ba14fb010
TAG STORE PROBE
	addr=2147493728
	block_addr=2147493632
	tag=2147493632
	idx=124 T_HIT
ldst_unit::l1d_process_memory_access_queue() - mf=0x7f7ba14fb010
l1_cache::access() - mf=0x7f7ba14fb010
l1_cache::process_tag_probe() - mf=0x7f7ba14fb010
l1_cache::rd_miss_base() - mf=0x7f7ba14fb010
l1_cache::rd_miss_base() - mf=0x7f7ba14fb010
l1_cache::send_read_request_2() - mf=0x7f7ba14fb010
ldst_unit::memory_cycle() - mf=0x7f7ba14fb010
TAG STORE PROBE
	addr=2147501952
	block_addr=2147501952
	tag=2147501952
	idx=110 T_HIT
ldst_unit::l1d_process_memory_access_queue() - mf=0x7f7ba14fb010
l1_cache::access() - mf=0x7f7ba14fb010
l1_cache::process_tag_probe() - mf=0x7f7ba14fb010
l1_cache::rd_miss_base() - mf=0x7f7ba14fb010
l1_cache::rd_miss_base() - mf=0x7f7ba14fb010
l1_cache::send_read_request_2() - mf=0x7f7ba14fb010
ldst_unit::memory_cycle() - mf=0x7f7ba14fb010
TAG STORE PROBE
	addr=2147511552
	block_addr=2147511552
	tag=2147511552
	idx=207 T_HIT
ldst_unit::l1d_process_memory_access_queue() - mf=0x7f7ba14fb010
l1_cache::access() - mf=0x7f7ba14fb010
l1_cache::process_tag_probe() - mf=0x7f7ba14fb010
l1_cache::rd_miss_base() - mf=0x7f7ba14fb010
l1_cache::rd_miss_base() - mf=0x7f7ba14fb010
l1_cache::send_read_request_2() - mf=0x7f7ba14fb010
ldst_unit::memory_cycle() - mf=0x7f7ba1e200a0
TAG STORE PROBE
	addr=2147501440
	block_addr=2147501440
	tag=2147501440
	idx=78 T_HIT
ldst_unit::l1d_process_memory_access_queue() - mf=0x7f7ba1e200a0
l1_cache::access() - mf=0x7f7ba1e200a0
l1_cache::process_tag_probe() - mf=0x7f7ba1e200a0
l1_cache::rd_miss_base() - mf=0x7f7ba1e200a0
l1_cache::rd_miss_base() - mf=0x7f7ba1e200a0
l1_cache::send_read_request_2() - mf=0x7f7ba1e200a0
ldst_unit::memory_cycle() - mf=0x7f7ba1e200a0
TAG STORE PROBE
	addr=2147493344
	block_addr=2147493248
	tag=2147493248
	idx=86 T_HIT
ldst_unit::l1d_process_memory_access_queue() - mf=0x7f7ba1e200a0
l1_cache::access() - mf=0x7f7ba1e200a0
l1_cache::process_tag_probe() - mf=0x7f7ba1e200a0
l1_cache::rd_miss_base() - mf=0x7f7ba1e200a0
l1_cache::rd_miss_base() - mf=0x7f7ba1e200a0
l1_cache::send_read_request_2() - mf=0x7f7ba1e200a0
ldst_unit::memory_cycle() - mf=0x7f7ba14fb040
TAG STORE PROBE
	addr=2147503232
	block_addr=2147503232
	tag=2147503232
	idx=222 T_HIT
ldst_unit::l1d_process_memory_access_queue() - mf=0x7f7ba14fb040
l1_cache::access() - mf=0x7f7ba14fb040
l1_cache::process_tag_probe() - mf=0x7f7ba14fb040
l1_cache::rd_miss_base() - mf=0x7f7ba14fb040
l1_cache::rd_miss_base() - mf=0x7f7ba14fb040
l1_cache::send_read_request_2() - mf=0x7f7ba14fb040
ldst_unit::memory_cycle() - mf=0x7f7ba14fb040
TAG STORE PROBE
	addr=2147487616
	block_addr=2147487616
	tag=2147487616
	idx=253 T_HIT
ldst_unit::l1d_process_memory_access_queue() - mf=0x7f7ba14fb040
l1_cache::access() - mf=0x7f7ba14fb040
l1_cache::process_tag_probe() - mf=0x7f7ba14fb040
l1_cache::rd_miss_base() - mf=0x7f7ba14fb040
l1_cache::rd_miss_base() - mf=0x7f7ba14fb040
l1_cache::send_read_request_2() - mf=0x7f7ba14fb040
ldst_unit::memory_cycle() - mf=0x7f7ba14fb040
TAG STORE PROBE
	addr=2147493728
	block_addr=2147493632
	tag=2147493632
	idx=124 T_HIT
ldst_unit::l1d_process_memory_access_queue() - mf=0x7f7ba14fb040
l1_cache::access() - mf=0x7f7ba14fb040
l1_cache::process_tag_probe() - mf=0x7f7ba14fb040
l1_cache::rd_miss_base() - mf=0x7f7ba14fb040
l1_cache::rd_miss_base() - mf=0x7f7ba14fb040
l1_cache::send_read_request_2() - mf=0x7f7ba14fb040
ldst_unit::memory_cycle() - mf=0x7f7ba14fb040
TAG STORE PROBE
	addr=2147501952
	block_addr=2147501952
	tag=2147501952
	idx=110 T_HIT
ldst_unit::l1d_process_memory_access_queue() - mf=0x7f7ba14fb040
l1_cache::access() - mf=0x7f7ba14fb040
l1_cache::process_tag_probe() - mf=0x7f7ba14fb040
l1_cache::rd_miss_base() - mf=0x7f7ba14fb040
l1_cache::rd_miss_base() - mf=0x7f7ba14fb040
l1_cache::send_read_request_2() - mf=0x7f7ba14fb040
ldst_unit::memory_cycle() - mf=0x7f7ba1e20f10
TAG STORE PROBE
	addr=2147511552
	block_addr=2147511552
	tag=2147511552
	idx=207 T_HIT
ldst_unit::l1d_process_memory_access_queue() - mf=0x7f7ba1e20f10
l1_cache::access() - mf=0x7f7ba1e20f10
l1_cache::process_tag_probe() - mf=0x7f7ba1e20f10
l1_cache::rd_miss_base() - mf=0x7f7ba1e20f10
l1_cache::rd_miss_base() - mf=0x7f7ba1e20f10
l1_cache::send_read_request_2() - mf=0x7f7ba1e20f10
ldst_unit::memory_cycle() - mf=0x7f7ba1e21780
TAG STORE PROBE
	addr=2147501440
	block_addr=2147501440
	tag=2147501440
	idx=78 T_HIT
ldst_unit::l1d_process_memory_access_queue() - mf=0x7f7ba1e21780
l1_cache::access() - mf=0x7f7ba1e21780
l1_cache::process_tag_probe() - mf=0x7f7ba1e21780
l1_cache::rd_miss_base() - mf=0x7f7ba1e21780
l1_cache::rd_miss_base() - mf=0x7f7ba1e21780
l1_cache::send_read_request_2() - mf=0x7f7ba1e21780
ldst_unit::memory_cycle() - mf=0x7f7ba1e21780
TAG STORE PROBE
	addr=2149595136
	block_addr=2149595136
	tag=2149595136
	idx is LFU
	idx=141 T_MISS
	tag_store->allocate() - tag_index=141
ldst_unit::memory_cycle() - mf=0x7f7ba1e21780 BYPASS
ldst_unit::memory_cycle() - mf=0x7f7ba1e21970
TAG STORE PROBE
	addr=2147493344
	block_addr=2147493248
	tag=2147493248
	idx=86 T_HIT
ldst_unit::l1d_process_memory_access_queue() - mf=0x7f7ba1e21970
l1_cache::access() - mf=0x7f7ba1e21970
l1_cache::process_tag_probe() - mf=0x7f7ba1e21970
l1_cache::rd_miss_base() - mf=0x7f7ba1e21970
l1_cache::rd_miss_base() - mf=0x7f7ba1e21970
l1_cache::send_read_request_2() - mf=0x7f7ba1e21970
ldst_unit::cycle() - mf=0x7f7ba18406c0
TAG STORE PROBE
	addr=2147504384
	block_addr=2147504384
	tag=2147504384
	idx=6 T_HIT
RC = 3
peek result - 1
l1_cache::fill() - mf=0x7f7ba18406c0
