

        *** GPGPU-Sim Simulator Version 3.2.2  [build 0] ***


GPGPU-Sim PTX: simulation mode 0 (can change with PTX_SIM_MODE_FUNC environment variable:
               1=functional simulation only, 0=detailed performance simulator)
GPGPU-Sim: Configuration options:

-network_mode                           1 # Interconnection network mode
-inter_config_file   config_fermi_islip.icnt # Interconnection network config file
-gpgpu_ptx_use_cuobjdump                    1 # Use cuobjdump to extract ptx and sass from binaries
-gpgpu_experimental_lib_support                    0 # Try to extract code from cuda libraries [Broken because of unknown cudaGetExportTable]
-gpgpu_ptx_convert_to_ptxplus                    0 # Convert SASS (native ISA) to ptxplus and run ptxplus
-gpgpu_ptx_force_max_capability                   20 # Force maximum compute capability
-gpgpu_ptx_inst_debug_to_file                    0 # Dump executed instructions' debug information to file
-gpgpu_ptx_inst_debug_file       inst_debug.txt # Executed instructions' debug output file
-gpgpu_ptx_inst_debug_thread_uid                    1 # Thread UID for executed instructions' debug output
-gpgpu_simd_model                       1 # 1 = post-dominator
-gpgpu_shader_core_pipeline              1536:32 # shader core pipeline config, i.e., {<nthread>:<warpsize>}
-gpgpu_tex_cache:l1  4:128:24,L:R:m:N:L,F:128:4,128:2 # per-shader L1 texture cache  (READ-ONLY) config  {<nsets>:<bsize>:<assoc>,<rep>:<wr>:<alloc>:<wr_alloc>,<mshr>:<N>:<merge>,<mq>:<rf>}
-gpgpu_const_cache:l1 64:64:2,L:R:f:N:L,A:2:32,4 # per-shader L1 constant memory cache  (READ-ONLY) config  {<nsets>:<bsize>:<assoc>,<rep>:<wr>:<alloc>:<wr_alloc>,<mshr>:<N>:<merge>,<mq>} 
-gpgpu_cache:il1     4:128:4,L:R:f:N:L,A:2:32,4 # shader L1 instruction cache config  {<nsets>:<bsize>:<assoc>,<rep>:<wr>:<alloc>:<wr_alloc>,<mshr>:<N>:<merge>,<mq>} 
-gpgpu_cache:dl1     32:128:4,L:L:m:N:H,A:32:8,8 # per-shader L1 data cache config  {<nsets>:<bsize>:<assoc>,<rep>:<wr>:<alloc>:<wr_alloc>,<mshr>:<N>:<merge>,<mq> | none}
-gpgpu_cache:dl1PrefL1                 none # per-shader L1 data cache config  {<nsets>:<bsize>:<assoc>,<rep>:<wr>:<alloc>:<wr_alloc>,<mshr>:<N>:<merge>,<mq> | none}
-gpgpu_cache:dl1PreShared                 none # per-shader L1 data cache config  {<nsets>:<bsize>:<assoc>,<rep>:<wr>:<alloc>:<wr_alloc>,<mshr>:<N>:<merge>,<mq> | none}
-gmem_skip_L1D                          0 # global memory access skip L1D cache (implements -Xptxas -dlcm=cg, default=no skip)
-gpgpu_perfect_mem                      0 # enable perfect memory mode (no cache miss)
-n_regfile_gating_group                    4 # group of lanes that should be read/written together)
-gpgpu_clock_gated_reg_file                    0 # enable clock gated reg file for power calculations
-gpgpu_clock_gated_lanes                    0 # enable clock gated lanes for power calculations
-gpgpu_shader_registers                32768 # Number of registers per shader core. Limits number of concurrent CTAs. (default 8192)
-gpgpu_shader_cta                       8 # Maximum number of concurrent CTAs in shader (default 8)
-gpgpu_num_cta_barriers                   16 # Maximum number of named barriers per CTA (default 16)
-gpgpu_n_clusters                      15 # number of processing clusters
-gpgpu_n_cores_per_cluster                    1 # number of simd cores per cluster
-gpgpu_n_cluster_ejection_buffer_size                    8 # number of packets in ejection buffer
-gpgpu_n_ldst_response_buffer_size                    2 # number of response packets in ld/st unit ejection buffer
-gpgpu_shmem_size                   16384 # Size of shared memory per shader core (default 16kB)
-gpgpu_shmem_size                   49152 # Size of shared memory per shader core (default 16kB)
-gpgpu_shmem_size_PrefL1                16384 # Size of shared memory per shader core (default 16kB)
-gpgpu_shmem_size_PrefShared                16384 # Size of shared memory per shader core (default 16kB)
-gpgpu_shmem_num_banks                   32 # Number of banks in the shared memory in each shader core (default 16)
-gpgpu_shmem_limited_broadcast                    0 # Limit shared memory to do one broadcast per cycle (default on)
-gpgpu_shmem_warp_parts                    1 # Number of portions a warp is divided into for shared memory bank conflict check 
-gpgpu_warpdistro_shader                   -1 # Specify which shader core to collect the warp size distribution from
-gpgpu_warp_issue_shader                    0 # Specify which shader core to collect the warp issue distribution from
-gpgpu_local_mem_map                    1 # Mapping from local memory space address to simulated GPU physical address space (default = enabled)
-gpgpu_num_reg_banks                   16 # Number of register banks (default = 8)
-gpgpu_reg_bank_use_warp_id                    0 # Use warp ID in mapping registers to banks (default = off)
-gpgpu_operand_collector_num_units_sp                    6 # number of collector units (default = 4)
-gpgpu_operand_collector_num_units_sfu                    8 # number of collector units (default = 4)
-gpgpu_operand_collector_num_units_mem                    2 # number of collector units (default = 2)
-gpgpu_operand_collector_num_units_gen                    0 # number of collector units (default = 0)
-gpgpu_operand_collector_num_in_ports_sp                    2 # number of collector unit in ports (default = 1)
-gpgpu_operand_collector_num_in_ports_sfu                    1 # number of collector unit in ports (default = 1)
-gpgpu_operand_collector_num_in_ports_mem                    1 # number of collector unit in ports (default = 1)
-gpgpu_operand_collector_num_in_ports_gen                    0 # number of collector unit in ports (default = 0)
-gpgpu_operand_collector_num_out_ports_sp                    2 # number of collector unit in ports (default = 1)
-gpgpu_operand_collector_num_out_ports_sfu                    1 # number of collector unit in ports (default = 1)
-gpgpu_operand_collector_num_out_ports_mem                    1 # number of collector unit in ports (default = 1)
-gpgpu_operand_collector_num_out_ports_gen                    0 # number of collector unit in ports (default = 0)
-gpgpu_coalesce_arch                   13 # Coalescing arch (default = 13, anything else is off for now)
-gpgpu_num_sched_per_core                    2 # Number of warp schedulers per core
-gpgpu_max_insn_issue_per_warp                    1 # Max number of instructions that can be issued per warp in one cycle by scheduler
-gpgpu_simt_core_sim_order                    1 # Select the simulation order of cores in a cluster (0=Fix, 1=Round-Robin)
-gpgpu_pipeline_widths        2,1,1,2,1,1,2 # Pipeline widths ID_OC_SP,ID_OC_SFU,ID_OC_MEM,OC_EX_SP,OC_EX_SFU,OC_EX_MEM,EX_WB
-gpgpu_num_sp_units                     2 # Number of SP units (default=1)
-gpgpu_num_sfu_units                    1 # Number of SF units (default=1)
-gpgpu_num_mem_units                    1 # Number if ldst units (default=1) WARNING: not hooked up to anything
-gpgpu_scheduler                      gto # Scheduler configuration: < lrr | gto | two_level_active > If two_level_active:<num_active_warps>:<inner_prioritization>:<outer_prioritization>For complete list of prioritization values see shader.h enum scheduler_prioritization_typeDefault: gto
-gpgpu_dram_scheduler                    1 # 0 = fifo, 1 = FR-FCFS (defaul)
-gpgpu_dram_partition_queues              8:8:8:8 # i2$:$2d:d2$:$2i
-l2_ideal                               0 # Use a ideal L2 cache that always hit
-gpgpu_cache:dl2     64:128:8,L:B:m:W:L,A:32:4,4:0,32 # unified banked L2 data cache config  {<nsets>:<bsize>:<assoc>,<rep>:<wr>:<alloc>:<wr_alloc>,<mshr>:<N>:<merge>,<mq>}
-gpgpu_cache:dl2_texture_only                    0 # L2 cache used for texture only
-gpgpu_n_mem                            6 # number of memory modules (e.g. memory controllers) in gpu
-gpgpu_n_sub_partition_per_mchannel                    2 # number of memory subpartition in each memory module
-gpgpu_n_mem_per_ctrlr                    2 # number of memory chips per memory controller
-gpgpu_memlatency_stat                   14 # track and display latency statistics 0x2 enables MC, 0x4 enables queue logs
-gpgpu_frfcfs_dram_sched_queue_size                   16 # 0 = unlimited (default); # entries per chip
-gpgpu_dram_return_queue_size                   84 # 0 = unlimited (default); # entries per chip
-gpgpu_dram_buswidth                    4 # default = 4 bytes (8 bytes per cycle at DDR)
-gpgpu_dram_burst_length                    8 # Burst length of each DRAM request (default = 4 data bus cycle)
-dram_data_command_freq_ratio                    4 # Frequency ratio between DRAM data bus and command bus (default = 2 times, i.e. DDR)
-gpgpu_dram_timing_opt nbk=16:CCD=2:RRD=6:RCD=12:RAS=28:RP=12:RC=40: CL=12:WL=4:CDLR=5:WR=12:nbkgrp=4:CCDL=3:RTPL=2 # DRAM timing parameters = {nbk:tCCD:tRRD:tRCD:tRAS:tRP:tRC:CL:WL:tCDLR:tWR:nbkgrp:tCCDL:tRTPL}
-rop_latency                          120 # ROP queue latency (default 85)
-dram_latency                         100 # DRAM latency (default 30)
-gpgpu_mem_addr_mapping dramid@8;00000000.00000000.00000000.00000000.0000RRRR.RRRRRRRR.BBBCCCCB.CCSSSSSS # mapping memory address to dram model {dramid@<start bit>;<memory address map>}
-gpgpu_mem_addr_test                    0 # run sweep test to check address mapping for aliased address
-gpgpu_mem_address_mask                    1 # 0 = old addressing mask, 1 = new addressing mask, 2 = new add. mask + flipped bank sel and chip sel bits
-gpuwattch_xml_file  gpuwattch_gtx480.xml # GPUWattch XML file
-power_simulation_enabled                    1 # Turn on power simulator (1=On, 0=Off)
-power_per_cycle_dump                    0 # Dump detailed power output each cycle
-power_trace_enabled                    0 # produce a file for the power trace (1=On, 0=Off)
-power_trace_zlevel                     6 # Compression level of the power trace output log (0=no comp, 9=highest)
-steady_power_levels_enabled                    0 # produce a file for the steady power levels (1=On, 0=Off)
-steady_state_definition                  8:4 # allowed deviation:number of samples
-gpgpu_max_cycle                        0 # terminates gpu simulation early (0 = no limit)
-gpgpu_max_insn                         0 # terminates gpu simulation early (0 = no limit)
-gpgpu_max_cta                          0 # terminates gpu simulation early (0 = no limit)
-gpgpu_runtime_stat                   500 # display runtime statistics such as dram utilization {<freq>:<flag>}
-liveness_message_freq                    1 # Minimum number of seconds between simulation liveness messages (0 = always print)
-gpgpu_flush_l1_cache                    0 # Flush L1 cache at the end of each kernel call
-gpgpu_flush_l2_cache                    0 # Flush L2 cache at the end of each kernel call
-gpgpu_deadlock_detect                    1 # Stop the simulation at deadlock (1=on (default), 0=off)
-gpgpu_ptx_instruction_classification                    0 # if enabled will classify ptx instruction types per kernel (Max 255 kernels now)
-gpgpu_ptx_sim_mode                     0 # Select between Performance (default) or Functional simulation (1)
-gpgpu_clock_domains 700.0:700.0:700.0:700.0 # Clock Domain Frequencies in MhZ {<Core Clock>:<ICNT Clock>:<L2 Clock>:<DRAM Clock>}
-gpgpu_max_concurrent_kernel                    8 # maximum kernels that can run concurrently on GPU
-gpgpu_cflog_interval                    0 # Interval between each snapshot in control flow logger
-visualizer_enabled                     0 # Turn on visualizer output (1=On, 0=Off)
-visualizer_outputfile                 NULL # Specifies the output log file for visualizer
-visualizer_zlevel                      6 # Compression level of the visualizer output log (0=no comp, 9=highest)
-trace_enabled                          0 # Turn on traces
-trace_components                    none # comma seperated list of traces to enable. Complete list found in trace_streams.tup. Default none
-trace_sampling_core                    0 # The core which is printed using CORE_DPRINTF. Default 0
-trace_sampling_memory_partition                   -1 # The memory partition which is printed using MEMPART_DPRINTF. Default -1 (i.e. all)
-enable_ptx_file_line_stats                    1 # Turn on PTX source line statistic profiling. (1 = On)
-ptx_line_stats_filename gpgpu_inst_stats.txt # Output file for PTX source line statistics.
-save_embedded_ptx                      0 # saves ptx files embedded in binary as <n>.ptx
-keep                                   0 # keep intermediate files created by GPGPU-Sim when interfacing with external programs
-gpgpu_ptx_save_converted_ptxplus                    0 # Saved converted ptxplus to a file
-ptx_opcode_latency_int         4,13,4,5,145 # Opcode latencies for integers <ADD,MAX,MUL,MAD,DIV>Default 1,1,19,25,145
-ptx_opcode_latency_fp          4,13,4,5,39 # Opcode latencies for single precision floating points <ADD,MAX,MUL,MAD,DIV>Default 1,1,1,1,30
-ptx_opcode_latency_dp         8,19,8,8,330 # Opcode latencies for double precision floating points <ADD,MAX,MUL,MAD,DIV>Default 8,8,8,8,335
-ptx_opcode_initiation_int            1,2,2,1,8 # Opcode initiation intervals for integers <ADD,MAX,MUL,MAD,DIV>Default 1,1,4,4,32
-ptx_opcode_initiation_fp            1,2,1,1,4 # Opcode initiation intervals for single precision floating points <ADD,MAX,MUL,MAD,DIV>Default 1,1,1,1,5
-ptx_opcode_initiation_dp         8,16,8,8,130 # Opcode initiation intervals for double precision floating points <ADD,MAX,MUL,MAD,DIV>Default 8,8,8,8,130
DRAM Timing Options:
nbk                                    16 # number of banks
CCD                                     2 # column to column delay
RRD                                     6 # minimal delay between activation of rows in different banks
RCD                                    12 # row to column delay
RAS                                    28 # time needed to activate row
RP                                     12 # time needed to precharge (deactivate) row
RC                                     40 # row cycle time
CDLR                                    5 # switching from write to read (changes tWTR)
WR                                     12 # last data-in to row precharge
CL                                     12 # CAS latency
WL                                      4 # Write latency
nbkgrp                                  4 # number of bank groups
CCDL                                    3 # column to column delay between accesses to different bank groups
RTPL                                    2 # read to precharge delay between accesses to different bank groups
Total number of memory sub partition = 12
addr_dec_mask[CHIP]  = 0000000000000000 	high:64 low:0
addr_dec_mask[BK]    = 000000000000e100 	high:16 low:8
addr_dec_mask[ROW]   = 000000000fff0000 	high:28 low:16
addr_dec_mask[COL]   = 0000000000001eff 	high:13 low:0
addr_dec_mask[BURST] = 000000000000003f 	high:6 low:0
sub_partition_id_mask = 0000000000000100
GPGPU-Sim uArch: clock freqs: 700000000.000000:700000000.000000:700000000.000000:700000000.000000
GPGPU-Sim uArch: clock periods: 0.00000000142857142857:0.00000000142857142857:0.00000000142857142857:0.00000000142857142857
*** Initializing Memory Statistics ***
GPGPU-Sim uArch: interconnect node map (shaderID+MemID to icntID)
GPGPU-Sim uArch: Memory nodes ID start from index: 15
GPGPU-Sim uArch:    0   1   2   3   4
GPGPU-Sim uArch:    5   6   7   8   9
GPGPU-Sim uArch:   10  11  12  13  14
GPGPU-Sim uArch:   15  16  17  18  19
GPGPU-Sim uArch:   20  21  22  23  24
GPGPU-Sim uArch:   25  26
GPGPU-Sim uArch: interconnect node reverse map (icntID to shaderID+MemID)
GPGPU-Sim uArch: Memory nodes start from ID: 15
GPGPU-Sim uArch:    0   1   2   3   4
GPGPU-Sim uArch:    5   6   7   8   9
GPGPU-Sim uArch:   10  11  12  13  14
GPGPU-Sim uArch:   15  16  17  18  19
GPGPU-Sim uArch:   20  21  22  23  24
GPGPU-Sim uArch:   25  26
20ca3b5bfeb128b0910ff77bfd9979fb  /home/gpgpu-sim/ECE523_Repo/benchmarks/test/hotspot-rodinia-3.1
GPGPU-Sim uArch: performance model initialization complete.
GPGPU-Sim PTX: __cudaRegisterFatBinary, fat_cubin_handle = 1, filename=hotspot.cu
self exe links to: /home/gpgpu-sim/ECE523_Repo/benchmarks/test/hotspot-rodinia-3.1
Running md5sum using "md5sum /home/gpgpu-sim/ECE523_Repo/benchmarks/test/hotspot-rodinia-3.1 "
Running cuobjdump using "$CUDA_INSTALL_PATH/bin/cuobjdump -ptx -elf -sass /home/gpgpu-sim/ECE523_Repo/benchmarks/test/hotspot-rodinia-3.1 > _cuobjdump_complete_output_ZFeZoS"
Parsing file _cuobjdump_complete_output_ZFeZoS
######### cuobjdump parser ########
## Adding new section ELF
Adding arch: sm_30
Adding identifier: hotspot.cu
## Adding new section PTX
Adding ptx filename: _cuobjdump_1.ptx
Adding arch: sm_30
Adding identifier: hotspot.cu
## Adding new section ELF
Adding arch: sm_13
Adding identifier: hotspot.cu
## Adding new section PTX
Adding ptx filename: _cuobjdump_2.ptx
Adding arch: sm_13
Adding identifier: hotspot.cu
## Adding new section ELF
Adding arch: sm_20
Adding identifier: hotspot.cu
## Adding new section PTX
Adding ptx filename: _cuobjdump_3.ptx
Adding arch: sm_20
Adding identifier: hotspot.cu
## Adding new section ELF
Adding arch: sm_10
Adding identifier: hotspot.cu
## Adding new section PTX
Adding ptx filename: _cuobjdump_4.ptx
Adding arch: sm_10
Adding identifier: hotspot.cu
Done parsing!!!
GPGPU-Sim PTX: __cudaRegisterFunction _Z14calculate_tempiPfS_S_iiiiffffff : hostFun 0x0x401390, fat_cubin_handle = 1
GPGPU-Sim PTX: allocating shared region for "__cuda_local_var_17095_39_non_const_temp_on_cuda" from 0x0 to 0x400 (shared memory space)
GPGPU-Sim PTX: allocating shared region for "__cuda_local_var_17096_39_non_const_power_on_cuda" from 0x400 to 0x800 (shared memory space)
GPGPU-Sim PTX: allocating shared region for "__cuda_local_var_17097_39_non_const_temp_t" from 0x800 to 0xc00 (shared memory space)
GPGPU-Sim PTX: Warning %temp1 was declared previous at _1.ptx:350 skipping new declaration
GPGPU-Sim PTX: Warning %temp2 was declared previous at _1.ptx:351 skipping new declaration
GPGPU-Sim PTX: instruction assembly for function '_Z14calculate_tempiPfS_S_iiiiffffff'...   done.
GPGPU-Sim PTX: finding reconvergence points for '_Z14calculate_tempiPfS_S_iiiiffffff'...
GPGPU-Sim PTX: Finding dominators for '_Z14calculate_tempiPfS_S_iiiiffffff'...
GPGPU-Sim PTX: Finding immediate dominators for '_Z14calculate_tempiPfS_S_iiiiffffff'...
GPGPU-Sim PTX: Finding postdominators for '_Z14calculate_tempiPfS_S_iiiiffffff'...
GPGPU-Sim PTX: Finding immediate postdominators for '_Z14calculate_tempiPfS_S_iiiiffffff'...
GPGPU-Sim PTX: pre-decoding instructions for '_Z14calculate_tempiPfS_S_iiiiffffff'...
GPGPU-Sim PTX: reconvergence points for _Z14calculate_tempiPfS_S_iiiiffffff...
GPGPU-Sim PTX:  1 (potential) branch divergence @  PC=0x110 (_1.ptx:99) @!%p3 bra BB0_3;
GPGPU-Sim PTX:    immediate post dominator      @  PC=0x238 (_1.ptx:155) bar.sync 0;
GPGPU-Sim PTX:  2 (potential) branch divergence @  PC=0x188 (_1.ptx:123) @!%p6 bra BB0_3;
GPGPU-Sim PTX:    immediate post dominator      @  PC=0x238 (_1.ptx:155) bar.sync 0;
GPGPU-Sim PTX:  3 (potential) branch divergence @  PC=0x3e0 (_1.ptx:223) @%p9 bra BB0_5;
GPGPU-Sim PTX:    immediate post dominator      @  PC=0x760 (_1.ptx:381) cvt.s16.s8 %temp1, %rc7;
GPGPU-Sim PTX:  4 (potential) branch divergence @  PC=0x3e8 (_1.ptx:224) bra.uni BB0_13;
GPGPU-Sim PTX:    immediate post dominator      @  PC=0x760 (_1.ptx:381) cvt.s16.s8 %temp1, %rc7;
GPGPU-Sim PTX:  5 (potential) branch divergence @  PC=0x420 (_1.ptx:236) @!%p12 bra BB0_8;
GPGPU-Sim PTX:    immediate post dominator      @  PC=0x6b0 (_1.ptx:341) bar.sync 0;
GPGPU-Sim PTX:  6 (potential) branch divergence @  PC=0x578 (_1.ptx:292) @%p25 bra BB0_8;
GPGPU-Sim PTX:    immediate post dominator      @  PC=0x6b0 (_1.ptx:341) bar.sync 0;
GPGPU-Sim PTX:  7 (potential) branch divergence @  PC=0x6a0 (_1.ptx:334) bra.uni BB0_9;
GPGPU-Sim PTX:    immediate post dominator      @  PC=0x6b0 (_1.ptx:341) bar.sync 0;
GPGPU-Sim PTX:  8 (potential) branch divergence @  PC=0x6d0 (_1.ptx:346) @%p26 bra BB0_13;
GPGPU-Sim PTX:    immediate post dominator      @  PC=0x760 (_1.ptx:381) cvt.s16.s8 %temp1, %rc7;
GPGPU-Sim PTX:  9 (potential) branch divergence @  PC=0x6f8 (_1.ptx:357) @%p27 bra BB0_12;
GPGPU-Sim PTX:    immediate post dominator      @  PC=0x748 (_1.ptx:372) bar.sync 0;
GPGPU-Sim PTX: 10 (potential) branch divergence @  PC=0x758 (_1.ptx:374) bra.uni BB0_4;
GPGPU-Sim PTX:    immediate post dominator      @  PC=0x3c8 (_1.ptx:219) mov.u32 %r11, %r159;
GPGPU-Sim PTX: 11 (potential) branch divergence @  PC=0x780 (_1.ptx:386) @%p28 bra BB0_15;
GPGPU-Sim PTX:    immediate post dominator      @  PC=0x868 (_1.ptx:432) ret;
GPGPU-Sim PTX: ... end of reconvergence points for _Z14calculate_tempiPfS_S_iiiiffffff
GPGPU-Sim PTX: ... done pre-decoding instructions for '_Z14calculate_tempiPfS_S_iiiiffffff'.
GPGPU-Sim PTX: finished parsing EMBEDDED .ptx file _1.ptx
Adding _cuobjdump_3.ptx with cubin handle 1
GPGPU-Sim PTX: extracting embedded .ptx to temporary file "_ptx_Ej0UwV"
Running: cat _ptx_Ej0UwV | sed 's/.version 1.5/.version 1.4/' | sed 's/, texmode_independent//' | sed 's/\(\.extern \.const\[1\] .b8 \w\+\)\[\]/\1\[1\]/' | sed 's/const\[.\]/const\[0\]/g' > _ptx2_Gu0UEY
GPGPU-Sim PTX: generating ptxinfo using "$CUDA_INSTALL_PATH/bin/ptxas --gpu-name=sm_20 -v _ptx2_Gu0UEY --output-file  /dev/null 2> _ptx_Ej0UwVinfo"
GPGPU-Sim PTX: Kernel '_Z14calculate_tempiPfS_S_iiiiffffff' : regs=30, lmem=0, smem=3072, cmem=120
GPGPU-Sim PTX: removing ptxinfo using "rm -f _ptx_Ej0UwV _ptx2_Gu0UEY _ptx_Ej0UwVinfo"
GPGPU-Sim PTX: loading globals with explicit initializers... 
GPGPU-Sim PTX: finished loading globals (0 bytes total).
GPGPU-Sim PTX: loading constants with explicit initializers...  done.
WG size of kernel = 16 X 16
pyramidHeight: 2
gridSize: [512, 512]
border:[2, 2]
blockGrid:[43, 43]
targetBlock:[12, 12]
Start computing the transient temperature

GPGPU-Sim PTX: cudaLaunch for 0x0x401390 (mode=performance simulation) on stream 0
GPGPU-Sim PTX: pushing kernel '_Z14calculate_tempiPfS_S_iiiiffffff' to stream 0, gridDim= (43,43,1) blockDim = (16,16,1) 
kernel '_Z14calculate_tempiPfS_S_iiiiffffff' transfer to GPU hardware scheduler
GPGPU-Sim uArch: Shader 1 bind to kernel 1 '_Z14calculate_tempiPfS_S_iiiiffffff'
GPGPU-Sim uArch: CTA/core = 4, limited by: regs
GPGPU-Sim uArch: core:  1, cta: 0 initialized @(1,0)
GPGPU-Sim uArch: Shader 2 bind to kernel 1 '_Z14calculate_tempiPfS_S_iiiiffffff'
GPGPU-Sim uArch: core:  2, cta: 0 initialized @(1,0)
GPGPU-Sim uArch: Shader 3 bind to kernel 1 '_Z14calculate_tempiPfS_S_iiiiffffff'
GPGPU-Sim uArch: core:  3, cta: 0 initialized @(1,0)
GPGPU-Sim uArch: Shader 4 bind to kernel 1 '_Z14calculate_tempiPfS_S_iiiiffffff'
GPGPU-Sim uArch: core:  4, cta: 0 initialized @(1,0)
GPGPU-Sim uArch: Shader 5 bind to kernel 1 '_Z14calculate_tempiPfS_S_iiiiffffff'
GPGPU-Sim uArch: core:  5, cta: 0 initialized @(1,0)
GPGPU-Sim uArch: Shader 6 bind to kernel 1 '_Z14calculate_tempiPfS_S_iiiiffffff'
GPGPU-Sim uArch: core:  6, cta: 0 initialized @(1,0)
GPGPU-Sim uArch: Shader 7 bind to kernel 1 '_Z14calculate_tempiPfS_S_iiiiffffff'
GPGPU-Sim uArch: core:  7, cta: 0 initialized @(1,0)
GPGPU-Sim uArch: Shader 8 bind to kernel 1 '_Z14calculate_tempiPfS_S_iiiiffffff'
GPGPU-Sim uArch: core:  8, cta: 0 initialized @(1,0)
GPGPU-Sim uArch: Shader 9 bind to kernel 1 '_Z14calculate_tempiPfS_S_iiiiffffff'
GPGPU-Sim uArch: core:  9, cta: 0 initialized @(1,0)
GPGPU-Sim uArch: Shader 10 bind to kernel 1 '_Z14calculate_tempiPfS_S_iiiiffffff'
GPGPU-Sim uArch: core: 10, cta: 0 initialized @(1,0)
GPGPU-Sim uArch: Shader 11 bind to kernel 1 '_Z14calculate_tempiPfS_S_iiiiffffff'
GPGPU-Sim uArch: core: 11, cta: 0 initialized @(1,0)
GPGPU-Sim uArch: Shader 12 bind to kernel 1 '_Z14calculate_tempiPfS_S_iiiiffffff'
GPGPU-Sim uArch: core: 12, cta: 0 initialized @(1,0)
GPGPU-Sim uArch: Shader 13 bind to kernel 1 '_Z14calculate_tempiPfS_S_iiiiffffff'
GPGPU-Sim uArch: core: 13, cta: 0 initialized @(1,0)
GPGPU-Sim uArch: Shader 14 bind to kernel 1 '_Z14calculate_tempiPfS_S_iiiiffffff'
GPGPU-Sim uArch: core: 14, cta: 0 initialized @(1,0)
GPGPU-Sim uArch: Shader 0 bind to kernel 1 '_Z14calculate_tempiPfS_S_iiiiffffff'
GPGPU-Sim uArch: core:  0, cta: 0 initialized @(1,0)
GPGPU-Sim uArch: core:  1, cta: 1 initialized @(2,0)
GPGPU-Sim uArch: core:  2, cta: 1 initialized @(2,0)
GPGPU-Sim uArch: core:  3, cta: 1 initialized @(2,0)
GPGPU-Sim uArch: core:  4, cta: 1 initialized @(2,0)
GPGPU-Sim uArch: core:  5, cta: 1 initialized @(2,0)
GPGPU-Sim uArch: core:  6, cta: 1 initialized @(2,0)
GPGPU-Sim uArch: core:  7, cta: 1 initialized @(2,0)
GPGPU-Sim uArch: core:  8, cta: 1 initialized @(2,0)
GPGPU-Sim uArch: core:  9, cta: 1 initialized @(2,0)
GPGPU-Sim uArch: core: 10, cta: 1 initialized @(2,0)
GPGPU-Sim uArch: core: 11, cta: 1 initialized @(2,0)
GPGPU-Sim uArch: core: 12, cta: 1 initialized @(2,0)
GPGPU-Sim uArch: core: 13, cta: 1 initialized @(2,0)
GPGPU-Sim uArch: core: 14, cta: 1 initialized @(2,0)
GPGPU-Sim uArch: core:  0, cta: 1 initialized @(2,0)
GPGPU-Sim uArch: core:  1, cta: 2 initialized @(3,0)
GPGPU-Sim uArch: core:  2, cta: 2 initialized @(3,0)
GPGPU-Sim uArch: core:  3, cta: 2 initialized @(3,0)
GPGPU-Sim uArch: core:  4, cta: 2 initialized @(3,0)
GPGPU-Sim uArch: core:  5, cta: 2 initialized @(3,0)
GPGPU-Sim uArch: core:  6, cta: 2 initialized @(3,0)
GPGPU-Sim uArch: core:  7, cta: 2 initialized @(3,0)
GPGPU-Sim uArch: core:  8, cta: 2 initialized @(3,0)
GPGPU-Sim uArch: core:  9, cta: 2 initialized @(3,0)
GPGPU-Sim uArch: core: 10, cta: 2 initialized @(3,0)
GPGPU-Sim uArch: core: 11, cta: 2 initialized @(3,0)
GPGPU-Sim uArch: core: 12, cta: 2 initialized @(3,0)
GPGPU-Sim uArch: core: 13, cta: 2 initialized @(3,0)
GPGPU-Sim uArch: core: 14, cta: 2 initialized @(3,0)
GPGPU-Sim uArch: core:  0, cta: 2 initialized @(3,0)
GPGPU-Sim uArch: core:  1, cta: 3 initialized @(4,0)
GPGPU-Sim uArch: core:  2, cta: 3 initialized @(4,0)
GPGPU-Sim uArch: core:  3, cta: 3 initialized @(4,0)
GPGPU-Sim uArch: core:  4, cta: 3 initialized @(4,0)
GPGPU-Sim uArch: core:  5, cta: 3 initialized @(4,0)
GPGPU-Sim uArch: core:  6, cta: 3 initialized @(4,0)
GPGPU-Sim uArch: core:  7, cta: 3 initialized @(4,0)
GPGPU-Sim uArch: core:  8, cta: 3 initialized @(4,0)
GPGPU-Sim uArch: core:  9, cta: 3 initialized @(4,0)
GPGPU-Sim uArch: core: 10, cta: 3 initialized @(4,0)
GPGPU-Sim uArch: core: 11, cta: 3 initialized @(4,0)
GPGPU-Sim uArch: core: 12, cta: 3 initialized @(4,0)
GPGPU-Sim uArch: core: 13, cta: 3 initialized @(4,0)
GPGPU-Sim uArch: core: 14, cta: 3 initialized @(4,0)
GPGPU-Sim uArch: core:  0, cta: 3 initialized @(4,0)
GPGPU-Sim uArch: cycles simulated: 500  inst.: 0 (ipc= 0.0) sim_rate=0 (inst/sec) elapsed = 0:0:00:02 / Wed Jan 30 15:36:31 2019
GPGPU-Sim PTX: 100000 instructions simulated : ctaid=(40,0,0) tid=(15,13,0)
GPGPU-Sim PTX: 200000 instructions simulated : ctaid=(10,1,0) tid=(15,15,0)
GPGPU-Sim uArch: cycles simulated: 1000  inst.: 221216 (ipc=221.2) sim_rate=73738 (inst/sec) elapsed = 0:0:00:03 / Wed Jan 30 15:36:32 2019
GPGPU-Sim PTX: 300000 instructions simulated : ctaid=(1,0,0) tid=(15,11,0)
GPGPU-Sim PTX: 400000 instructions simulated : ctaid=(31,0,0) tid=(15,5,0)
GPGPU-Sim uArch: cycles simulated: 1500  inst.: 462784 (ipc=308.5) sim_rate=92556 (inst/sec) elapsed = 0:0:00:05 / Wed Jan 30 15:36:34 2019
GPGPU-Sim PTX: 500000 instructions simulated : ctaid=(19,0,0) tid=(15,9,0)
GPGPU-Sim PTX: 600000 instructions simulated : ctaid=(12,1,0) tid=(15,9,0)
GPGPU-Sim PTX: 700000 instructions simulated : ctaid=(35,0,0) tid=(7,14,0)
GPGPU-Sim PTX: 800000 instructions simulated : ctaid=(23,0,0) tid=(15,8,0)
GPGPU-Sim uArch: cycles simulated: 2000  inst.: 804940 (ipc=402.5) sim_rate=114991 (inst/sec) elapsed = 0:0:00:07 / Wed Jan 30 15:36:36 2019
GPGPU-Sim PTX: 900000 instructions simulated : ctaid=(19,0,0) tid=(3,12,0)
GPGPU-Sim uArch: cycles simulated: 3000  inst.: 908516 (ipc=302.8) sim_rate=113564 (inst/sec) elapsed = 0:0:00:08 / Wed Jan 30 15:36:37 2019
GPGPU-Sim PTX: 1000000 instructions simulated : ctaid=(8,1,0) tid=(11,10,0)
GPGPU-Sim uArch: cycles simulated: 3500  inst.: 996528 (ipc=284.7) sim_rate=99652 (inst/sec) elapsed = 0:0:00:10 / Wed Jan 30 15:36:39 2019
GPGPU-Sim PTX: 1100000 instructions simulated : ctaid=(6,0,0) tid=(15,13,0)
GPGPU-Sim PTX: 1200000 instructions simulated : ctaid=(33,0,0) tid=(7,0,0)
GPGPU-Sim uArch: cycles simulated: 4000  inst.: 1215880 (ipc=304.0) sim_rate=110534 (inst/sec) elapsed = 0:0:00:11 / Wed Jan 30 15:36:40 2019
GPGPU-Sim PTX: 1300000 instructions simulated : ctaid=(24,0,0) tid=(11,4,0)
GPGPU-Sim PTX: 1400000 instructions simulated : ctaid=(34,0,0) tid=(15,4,0)
GPGPU-Sim PTX: 1500000 instructions simulated : ctaid=(18,0,0) tid=(15,6,0)
GPGPU-Sim PTX: 1600000 instructions simulated : ctaid=(1,0,0) tid=(15,4,0)
GPGPU-Sim uArch: cycles simulated: 4500  inst.: 1562688 (ipc=347.3) sim_rate=120206 (inst/sec) elapsed = 0:0:00:13 / Wed Jan 30 15:36:42 2019
GPGPU-Sim PTX: 1700000 instructions simulated : ctaid=(9,1,0) tid=(15,4,0)
GPGPU-Sim PTX: 1800000 instructions simulated : ctaid=(14,1,0) tid=(15,4,0)
GPGPU-Sim PTX: 1900000 instructions simulated : ctaid=(6,1,0) tid=(15,6,0)
GPGPU-Sim uArch: cycles simulated: 5000  inst.: 1898980 (ipc=379.8) sim_rate=126598 (inst/sec) elapsed = 0:0:00:15 / Wed Jan 30 15:36:44 2019
GPGPU-Sim PTX: 2000000 instructions simulated : ctaid=(12,0,0) tid=(8,12,0)
GPGPU-Sim PTX: 2100000 instructions simulated : ctaid=(1,1,0) tid=(4,14,0)
GPGPU-Sim uArch: cycles simulated: 5500  inst.: 2096812 (ipc=381.2) sim_rate=131050 (inst/sec) elapsed = 0:0:00:16 / Wed Jan 30 15:36:45 2019
GPGPU-Sim PTX: 2200000 instructions simulated : ctaid=(10,0,0) tid=(2,1,0)
GPGPU-Sim PTX: 2300000 instructions simulated : ctaid=(37,0,0) tid=(14,3,0)
GPGPU-Sim uArch: cycles simulated: 6000  inst.: 2336884 (ipc=389.5) sim_rate=137463 (inst/sec) elapsed = 0:0:00:17 / Wed Jan 30 15:36:46 2019
GPGPU-Sim PTX: 2400000 instructions simulated : ctaid=(27,0,0) tid=(12,0,0)
GPGPU-Sim PTX: 2500000 instructions simulated : ctaid=(12,1,0) tid=(11,6,0)
GPGPU-Sim PTX: 2600000 instructions simulated : ctaid=(39,0,0) tid=(9,11,0)
GPGPU-Sim uArch: cycles simulated: 6500  inst.: 2595899 (ipc=399.4) sim_rate=144216 (inst/sec) elapsed = 0:0:00:18 / Wed Jan 30 15:36:47 2019
GPGPU-Sim PTX: 2700000 instructions simulated : ctaid=(18,0,0) tid=(2,11,0)
GPGPU-Sim PTX: 2800000 instructions simulated : ctaid=(21,0,0) tid=(5,13,0)
GPGPU-Sim uArch: cycles simulated: 7000  inst.: 2783832 (ipc=397.7) sim_rate=139191 (inst/sec) elapsed = 0:0:00:20 / Wed Jan 30 15:36:49 2019
GPGPU-Sim PTX: 2900000 instructions simulated : ctaid=(7,0,0) tid=(10,4,0)
GPGPU-Sim PTX: 3000000 instructions simulated : ctaid=(22,0,0) tid=(9,13,0)
GPGPU-Sim uArch: cycles simulated: 7500  inst.: 3017174 (ipc=402.3) sim_rate=143674 (inst/sec) elapsed = 0:0:00:21 / Wed Jan 30 15:36:50 2019
GPGPU-Sim PTX: 3100000 instructions simulated : ctaid=(5,0,0) tid=(8,5,0)
GPGPU-Sim PTX: 3200000 instructions simulated : ctaid=(11,0,0) tid=(6,3,0)
GPGPU-Sim PTX: 3300000 instructions simulated : ctaid=(8,1,0) tid=(14,12,0)
GPGPU-Sim PTX: 3400000 instructions simulated : ctaid=(31,0,0) tid=(3,1,0)
GPGPU-Sim uArch: cycles simulated: 8000  inst.: 3351796 (ipc=419.0) sim_rate=145730 (inst/sec) elapsed = 0:0:00:23 / Wed Jan 30 15:36:52 2019
GPGPU-Sim PTX: 3500000 instructions simulated : ctaid=(28,0,0) tid=(13,9,0)
GPGPU-Sim PTX: 3600000 instructions simulated : ctaid=(3,0,0) tid=(13,15,0)
GPGPU-Sim PTX: 3700000 instructions simulated : ctaid=(15,0,0) tid=(5,5,0)
GPGPU-Sim uArch: cycles simulated: 8500  inst.: 3647614 (ipc=429.1) sim_rate=151983 (inst/sec) elapsed = 0:0:00:24 / Wed Jan 30 15:36:53 2019
GPGPU-Sim PTX: 3800000 instructions simulated : ctaid=(2,1,0) tid=(11,4,0)
GPGPU-Sim PTX: 3900000 instructions simulated : ctaid=(13,1,0) tid=(12,14,0)
GPGPU-Sim PTX: 4000000 instructions simulated : ctaid=(40,0,0) tid=(13,4,0)
GPGPU-Sim uArch: cycles simulated: 9000  inst.: 3915402 (ipc=435.0) sim_rate=156616 (inst/sec) elapsed = 0:0:00:25 / Wed Jan 30 15:36:54 2019
GPGPU-Sim PTX: 4100000 instructions simulated : ctaid=(6,0,0) tid=(5,13,0)
GPGPU-Sim PTX: 4200000 instructions simulated : ctaid=(37,0,0) tid=(5,13,0)
GPGPU-Sim PTX: 4300000 instructions simulated : ctaid=(2,1,0) tid=(7,10,0)
GPGPU-Sim uArch: cycles simulated: 9500  inst.: 4212550 (ipc=443.4) sim_rate=156020 (inst/sec) elapsed = 0:0:00:27 / Wed Jan 30 15:36:56 2019
GPGPU-Sim PTX: 4400000 instructions simulated : ctaid=(3,1,0) tid=(11,13,0)
GPGPU-Sim PTX: 4500000 instructions simulated : ctaid=(1,1,0) tid=(11,3,0)
GPGPU-Sim uArch: Shader 2 finished CTA #0 (9959,0), 3 CTAs running
GPGPU-Sim uArch: core:  2, cta: 0 initialized @(9960,0)
GPGPU-Sim uArch: Shader 12 finished CTA #0 (9971,0), 3 CTAs running
GPGPU-Sim uArch: core: 12, cta: 0 initialized @(9972,0)
GPGPU-Sim uArch: Shader 4 finished CTA #0 (9985,0), 3 CTAs running
GPGPU-Sim uArch: core:  4, cta: 0 initialized @(9986,0)
GPGPU-Sim uArch: cycles simulated: 10000  inst.: 4432182 (ipc=443.2) sim_rate=158292 (inst/sec) elapsed = 0:0:00:28 / Wed Jan 30 15:36:57 2019
GPGPU-Sim uArch: Shader 13 finished CTA #0 (10005,0), 3 CTAs running
GPGPU-Sim uArch: core: 13, cta: 0 initialized @(10006,0)
GPGPU-Sim uArch: Shader 2 finished CTA #1 (10013,0), 3 CTAs running
GPGPU-Sim uArch: core:  2, cta: 1 initialized @(10014,0)
GPGPU-Sim uArch: Shader 9 finished CTA #0 (10019,0), 3 CTAs running
GPGPU-Sim uArch: core:  9, cta: 0 initialized @(10020,0)
GPGPU-Sim uArch: Shader 1 finished CTA #0 (10041,0), 3 CTAs running
GPGPU-Sim uArch: core:  1, cta: 0 initialized @(10042,0)
GPGPU-Sim uArch: Shader 5 finished CTA #0 (10050,0), 3 CTAs running
GPGPU-Sim uArch: core:  5, cta: 0 initialized @(10051,0)
GPGPU-Sim uArch: Shader 14 finished CTA #0 (10059,0), 3 CTAs running
GPGPU-Sim uArch: core: 14, cta: 0 initialized @(10060,0)
GPGPU-Sim uArch: Shader 1 finished CTA #1 (10062,0), 3 CTAs running
GPGPU-Sim uArch: core:  1, cta: 1 initialized @(10063,0)
GPGPU-Sim uArch: Shader 0 finished CTA #0 (10068,0), 3 CTAs running
GPGPU-Sim uArch: core:  0, cta: 0 initialized @(10069,0)
GPGPU-Sim uArch: Shader 5 finished CTA #1 (10072,0), 3 CTAs running
GPGPU-Sim uArch: core:  5, cta: 1 initialized @(10073,0)
GPGPU-Sim uArch: Shader 4 finished CTA #1 (10122,0), 3 CTAs running
GPGPU-Sim uArch: core:  4, cta: 1 initialized @(10123,0)
GPGPU-Sim uArch: Shader 10 finished CTA #0 (10124,0), 3 CTAs running
GPGPU-Sim uArch: core: 10, cta: 0 initialized @(10125,0)
GPGPU-Sim uArch: Shader 8 finished CTA #0 (10130,0), 3 CTAs running
GPGPU-Sim uArch: core:  8, cta: 0 initialized @(10131,0)
GPGPU-Sim uArch: Shader 3 finished CTA #1 (10195,0), 3 CTAs running
GPGPU-Sim uArch: core:  3, cta: 1 initialized @(10196,0)
GPGPU-Sim PTX: 4600000 instructions simulated : ctaid=(10,1,0) tid=(13,15,0)
GPGPU-Sim uArch: Shader 9 finished CTA #1 (10223,0), 3 CTAs running
GPGPU-Sim uArch: core:  9, cta: 1 initialized @(10224,0)
GPGPU-Sim uArch: Shader 13 finished CTA #1 (10224,0), 3 CTAs running
GPGPU-Sim uArch: core: 13, cta: 1 initialized @(10225,0)
GPGPU-Sim uArch: Shader 6 finished CTA #1 (10246,0), 3 CTAs running
GPGPU-Sim uArch: core:  6, cta: 1 initialized @(10247,0)
GPGPU-Sim uArch: Shader 3 finished CTA #0 (10258,0), 3 CTAs running
GPGPU-Sim uArch: core:  3, cta: 0 initialized @(10259,0)
GPGPU-Sim uArch: Shader 11 finished CTA #0 (10274,0), 3 CTAs running
GPGPU-Sim uArch: core: 11, cta: 0 initialized @(10275,0)
GPGPU-Sim uArch: Shader 7 finished CTA #0 (10287,0), 3 CTAs running
GPGPU-Sim uArch: core:  7, cta: 0 initialized @(10288,0)
GPGPU-Sim uArch: Shader 14 finished CTA #1 (10306,0), 3 CTAs running
GPGPU-Sim uArch: core: 14, cta: 1 initialized @(10307,0)
GPGPU-Sim uArch: Shader 12 finished CTA #1 (10327,0), 3 CTAs running
GPGPU-Sim uArch: core: 12, cta: 1 initialized @(10328,0)
GPGPU-Sim uArch: Shader 6 finished CTA #0 (10330,0), 3 CTAs running
GPGPU-Sim uArch: core:  6, cta: 0 initialized @(10331,0)
GPGPU-Sim uArch: Shader 11 finished CTA #1 (10331,0), 3 CTAs running
GPGPU-Sim uArch: core: 11, cta: 1 initialized @(10332,0)
GPGPU-Sim uArch: Shader 8 finished CTA #1 (10347,0), 3 CTAs running
GPGPU-Sim uArch: core:  8, cta: 1 initialized @(10348,0)
GPGPU-Sim uArch: Shader 7 finished CTA #1 (10352,0), 3 CTAs running
GPGPU-Sim uArch: Shader 10 finished CTA #1 (10352,0), 3 CTAs running
GPGPU-Sim uArch: core: 10, cta: 1 initialized @(10353,0)
GPGPU-Sim uArch: core:  7, cta: 1 initialized @(10353,0)
GPGPU-Sim uArch: Shader 13 finished CTA #2 (10364,0), 3 CTAs running
GPGPU-Sim uArch: core: 13, cta: 2 initialized @(10365,0)
GPGPU-Sim PTX: 4700000 instructions simulated : ctaid=(5,1,0) tid=(3,5,0)
GPGPU-Sim uArch: Shader 0 finished CTA #1 (10396,0), 3 CTAs running
GPGPU-Sim uArch: core:  0, cta: 1 initialized @(10397,0)
GPGPU-Sim uArch: Shader 2 finished CTA #2 (10413,0), 3 CTAs running
GPGPU-Sim uArch: core:  2, cta: 2 initialized @(10414,0)
GPGPU-Sim uArch: Shader 1 finished CTA #2 (10431,0), 3 CTAs running
GPGPU-Sim uArch: core:  1, cta: 2 initialized @(10432,0)
GPGPU-Sim uArch: Shader 14 finished CTA #2 (10461,0), 3 CTAs running
GPGPU-Sim uArch: core: 14, cta: 2 initialized @(10462,0)
GPGPU-Sim uArch: cycles simulated: 10500  inst.: 4656206 (ipc=443.4) sim_rate=155206 (inst/sec) elapsed = 0:0:00:30 / Wed Jan 30 15:36:59 2019
GPGPU-Sim uArch: Shader 0 finished CTA #2 (10518,0), 3 CTAs running
GPGPU-Sim uArch: core:  0, cta: 2 initialized @(10519,0)
GPGPU-Sim PTX: 4800000 instructions simulated : ctaid=(37,1,0) tid=(5,11,0)
GPGPU-Sim uArch: Shader 4 finished CTA #2 (10551,0), 3 CTAs running
GPGPU-Sim uArch: core:  4, cta: 2 initialized @(10552,0)
GPGPU-Sim uArch: Shader 9 finished CTA #2 (10552,0), 3 CTAs running
GPGPU-Sim uArch: core:  9, cta: 2 initialized @(10553,0)
GPGPU-Sim uArch: Shader 12 finished CTA #2 (10569,0), 3 CTAs running
GPGPU-Sim uArch: core: 12, cta: 2 initialized @(10570,0)
GPGPU-Sim uArch: Shader 10 finished CTA #2 (10597,0), 3 CTAs running
GPGPU-Sim uArch: core: 10, cta: 2 initialized @(10598,0)
GPGPU-Sim uArch: Shader 11 finished CTA #2 (10599,0), 3 CTAs running
GPGPU-Sim uArch: core: 11, cta: 2 initialized @(10600,0)
GPGPU-Sim uArch: Shader 5 finished CTA #2 (10641,0), 3 CTAs running
GPGPU-Sim uArch: core:  5, cta: 2 initialized @(10642,0)
GPGPU-Sim uArch: Shader 8 finished CTA #2 (10643,0), 3 CTAs running
GPGPU-Sim uArch: core:  8, cta: 2 initialized @(10644,0)
GPGPU-Sim uArch: Shader 6 finished CTA #2 (10667,0), 3 CTAs running
GPGPU-Sim uArch: core:  6, cta: 2 initialized @(10668,0)
GPGPU-Sim uArch: Shader 3 finished CTA #2 (10676,0), 3 CTAs running
GPGPU-Sim uArch: core:  3, cta: 2 initialized @(10677,0)
GPGPU-Sim uArch: Shader 7 finished CTA #2 (10679,0), 3 CTAs running
GPGPU-Sim uArch: core:  7, cta: 2 initialized @(10680,0)
GPGPU-Sim PTX: 4900000 instructions simulated : ctaid=(38,1,0) tid=(13,4,0)
GPGPU-Sim uArch: Shader 6 finished CTA #3 (10767,0), 3 CTAs running
GPGPU-Sim uArch: core:  6, cta: 3 initialized @(10768,0)
GPGPU-Sim uArch: Shader 10 finished CTA #3 (10787,0), 3 CTAs running
GPGPU-Sim uArch: core: 10, cta: 3 initialized @(10788,0)
GPGPU-Sim uArch: Shader 1 finished CTA #3 (10807,0), 3 CTAs running
GPGPU-Sim uArch: core:  1, cta: 3 initialized @(10808,0)
GPGPU-Sim uArch: Shader 11 finished CTA #3 (10832,0), 3 CTAs running
GPGPU-Sim uArch: core: 11, cta: 3 initialized @(10833,0)
GPGPU-Sim PTX: 5000000 instructions simulated : ctaid=(31,1,0) tid=(5,13,0)
GPGPU-Sim uArch: Shader 7 finished CTA #3 (10885,0), 3 CTAs running
GPGPU-Sim uArch: core:  7, cta: 3 initialized @(10886,0)
GPGPU-Sim uArch: Shader 5 finished CTA #3 (10918,0), 3 CTAs running
GPGPU-Sim uArch: core:  5, cta: 3 initialized @(10919,0)
GPGPU-Sim uArch: Shader 3 finished CTA #3 (10923,0), 3 CTAs running
GPGPU-Sim uArch: core:  3, cta: 3 initialized @(10924,0)
GPGPU-Sim uArch: Shader 8 finished CTA #3 (10934,0), 3 CTAs running
GPGPU-Sim uArch: core:  8, cta: 3 initialized @(10935,0)
GPGPU-Sim uArch: Shader 2 finished CTA #3 (10936,0), 3 CTAs running
GPGPU-Sim uArch: core:  2, cta: 3 initialized @(10937,0)
GPGPU-Sim uArch: Shader 9 finished CTA #3 (10941,0), 3 CTAs running
GPGPU-Sim uArch: core:  9, cta: 3 initialized @(10942,0)
GPGPU-Sim uArch: Shader 13 finished CTA #3 (10989,0), 3 CTAs running
GPGPU-Sim uArch: core: 13, cta: 3 initialized @(10990,0)
GPGPU-Sim uArch: Shader 14 finished CTA #3 (10990,0), 3 CTAs running
GPGPU-Sim uArch: core: 14, cta: 3 initialized @(10991,0)
GPGPU-Sim PTX: 5100000 instructions simulated : ctaid=(9,2,0) tid=(9,9,0)
GPGPU-Sim uArch: cycles simulated: 11000  inst.: 4971470 (ipc=452.0) sim_rate=160370 (inst/sec) elapsed = 0:0:00:31 / Wed Jan 30 15:37:00 2019
GPGPU-Sim uArch: Shader 12 finished CTA #3 (11011,0), 3 CTAs running
GPGPU-Sim uArch: core: 12, cta: 3 initialized @(11012,0)
GPGPU-Sim uArch: Shader 4 finished CTA #3 (11041,0), 3 CTAs running
GPGPU-Sim uArch: core:  4, cta: 3 initialized @(11042,0)
GPGPU-Sim uArch: Shader 0 finished CTA #3 (11125,0), 3 CTAs running
GPGPU-Sim uArch: core:  0, cta: 3 initialized @(11126,0)
GPGPU-Sim PTX: 5200000 instructions simulated : ctaid=(40,1,0) tid=(1,11,0)
GPGPU-Sim PTX: 5300000 instructions simulated : ctaid=(33,1,0) tid=(13,11,0)
GPGPU-Sim PTX: 5400000 instructions simulated : ctaid=(21,2,0) tid=(1,7,0)
GPGPU-Sim uArch: cycles simulated: 11500  inst.: 5297186 (ipc=460.6) sim_rate=160520 (inst/sec) elapsed = 0:0:00:33 / Wed Jan 30 15:37:02 2019
GPGPU-Sim PTX: 5500000 instructions simulated : ctaid=(23,2,0) tid=(9,9,0)
GPGPU-Sim PTX: 5600000 instructions simulated : ctaid=(18,2,0) tid=(9,13,0)
GPGPU-Sim uArch: cycles simulated: 12000  inst.: 5485206 (ipc=457.1) sim_rate=156720 (inst/sec) elapsed = 0:0:00:35 / Wed Jan 30 15:37:04 2019
GPGPU-Sim PTX: 5700000 instructions simulated : ctaid=(13,2,0) tid=(5,14,0)
GPGPU-Sim PTX: 5800000 instructions simulated : ctaid=(20,1,0) tid=(1,7,0)
GPGPU-Sim uArch: cycles simulated: 12500  inst.: 5688278 (ipc=455.1) sim_rate=158007 (inst/sec) elapsed = 0:0:00:36 / Wed Jan 30 15:37:05 2019
GPGPU-Sim PTX: 5900000 instructions simulated : ctaid=(32,1,0) tid=(9,12,0)
GPGPU-Sim PTX: 6000000 instructions simulated : ctaid=(38,1,0) tid=(1,3,0)
GPGPU-Sim PTX: 6100000 instructions simulated : ctaid=(41,1,0) tid=(13,10,0)
GPGPU-Sim uArch: cycles simulated: 13000  inst.: 6037602 (ipc=464.4) sim_rate=158884 (inst/sec) elapsed = 0:0:00:38 / Wed Jan 30 15:37:07 2019
GPGPU-Sim PTX: 6200000 instructions simulated : ctaid=(0,2,0) tid=(5,15,0)
GPGPU-Sim PTX: 6300000 instructions simulated : ctaid=(18,1,0) tid=(6,2,0)
GPGPU-Sim PTX: 6400000 instructions simulated : ctaid=(8,2,0) tid=(9,3,0)
GPGPU-Sim PTX: 6500000 instructions simulated : ctaid=(29,1,0) tid=(14,13,0)
GPGPU-Sim uArch: cycles simulated: 13500  inst.: 6376292 (ipc=472.3) sim_rate=163494 (inst/sec) elapsed = 0:0:00:39 / Wed Jan 30 15:37:08 2019
GPGPU-Sim PTX: 6600000 instructions simulated : ctaid=(32,1,0) tid=(14,10,0)
GPGPU-Sim PTX: 6700000 instructions simulated : ctaid=(22,1,0) tid=(13,7,0)
GPGPU-Sim PTX: 6800000 instructions simulated : ctaid=(17,2,0) tid=(9,12,0)
GPGPU-Sim uArch: cycles simulated: 14000  inst.: 6676745 (ipc=476.9) sim_rate=162847 (inst/sec) elapsed = 0:0:00:41 / Wed Jan 30 15:37:10 2019
GPGPU-Sim PTX: 6900000 instructions simulated : ctaid=(35,1,0) tid=(14,4,0)
GPGPU-Sim PTX: 7000000 instructions simulated : ctaid=(20,1,0) tid=(13,13,0)
GPGPU-Sim PTX: 7100000 instructions simulated : ctaid=(14,2,0) tid=(3,8,0)
GPGPU-Sim uArch: cycles simulated: 14500  inst.: 6993896 (ipc=482.3) sim_rate=166521 (inst/sec) elapsed = 0:0:00:42 / Wed Jan 30 15:37:11 2019
GPGPU-Sim PTX: 7200000 instructions simulated : ctaid=(21,1,0) tid=(4,11,0)
GPGPU-Sim PTX: 7300000 instructions simulated : ctaid=(41,1,0) tid=(10,7,0)
GPGPU-Sim PTX: 7400000 instructions simulated : ctaid=(21,1,0) tid=(10,4,0)
GPGPU-Sim uArch: Shader 2 finished CTA #0 (14938,0), 3 CTAs running
GPGPU-Sim uArch: core:  2, cta: 0 initialized @(14939,0)
GPGPU-Sim uArch: cycles simulated: 15000  inst.: 7288544 (ipc=485.9) sim_rate=165648 (inst/sec) elapsed = 0:0:00:44 / Wed Jan 30 15:37:13 2019
GPGPU-Sim PTX: 7500000 instructions simulated : ctaid=(4,2,0) tid=(0,7,0)
GPGPU-Sim PTX: 7600000 instructions simulated : ctaid=(39,1,0) tid=(13,14,0)
GPGPU-Sim PTX: 7700000 instructions simulated : ctaid=(4,2,0) tid=(5,13,0)
GPGPU-Sim uArch: Shader 12 finished CTA #0 (15357,0), 3 CTAs running
GPGPU-Sim uArch: core: 12, cta: 0 initialized @(15358,0)
GPGPU-Sim uArch: Shader 13 finished CTA #0 (15373,0), 3 CTAs running
GPGPU-Sim uArch: core: 13, cta: 0 initialized @(15374,0)
GPGPU-Sim uArch: Shader 4 finished CTA #0 (15413,0), 3 CTAs running
GPGPU-Sim uArch: core:  4, cta: 0 initialized @(15414,0)
GPGPU-Sim uArch: Shader 9 finished CTA #0 (15443,0), 3 CTAs running
GPGPU-Sim uArch: core:  9, cta: 0 initialized @(15444,0)
GPGPU-Sim PTX: 7800000 instructions simulated : ctaid=(29,1,0) tid=(3,14,0)
GPGPU-Sim uArch: cycles simulated: 15500  inst.: 7624192 (ipc=491.9) sim_rate=165743 (inst/sec) elapsed = 0:0:00:46 / Wed Jan 30 15:37:15 2019
GPGPU-Sim uArch: Shader 3 finished CTA #1 (15521,0), 3 CTAs running
GPGPU-Sim uArch: core:  3, cta: 1 initialized @(15522,0)
GPGPU-Sim uArch: Shader 0 finished CTA #0 (15527,0), 3 CTAs running
GPGPU-Sim uArch: core:  0, cta: 0 initialized @(15528,0)
GPGPU-Sim uArch: Shader 1 finished CTA #0 (15542,0), 3 CTAs running
GPGPU-Sim uArch: core:  1, cta: 0 initialized @(15543,0)
GPGPU-Sim uArch: Shader 5 finished CTA #0 (15580,0), 3 CTAs running
GPGPU-Sim uArch: core:  5, cta: 0 initialized @(15581,0)
GPGPU-Sim PTX: 7900000 instructions simulated : ctaid=(13,2,0) tid=(8,13,0)
GPGPU-Sim uArch: Shader 10 finished CTA #0 (15644,0), 3 CTAs running
GPGPU-Sim uArch: core: 10, cta: 0 initialized @(15645,0)
GPGPU-Sim uArch: Shader 8 finished CTA #0 (15688,0), 3 CTAs running
GPGPU-Sim uArch: core:  8, cta: 0 initialized @(15689,0)
GPGPU-Sim uArch: Shader 14 finished CTA #0 (15691,0), 3 CTAs running
GPGPU-Sim uArch: core: 14, cta: 0 initialized @(15692,0)
GPGPU-Sim uArch: Shader 6 finished CTA #1 (15744,0), 3 CTAs running
GPGPU-Sim uArch: core:  6, cta: 1 initialized @(15745,0)
GPGPU-Sim PTX: 8000000 instructions simulated : ctaid=(27,2,0) tid=(4,9,0)
GPGPU-Sim uArch: Shader 11 finished CTA #0 (15794,0), 3 CTAs running
GPGPU-Sim uArch: core: 11, cta: 0 initialized @(15795,0)
GPGPU-Sim uArch: Shader 7 finished CTA #0 (15839,0), 3 CTAs running
GPGPU-Sim uArch: core:  7, cta: 0 initialized @(15840,0)
GPGPU-Sim PTX: 8100000 instructions simulated : ctaid=(22,2,0) tid=(10,5,0)
GPGPU-Sim uArch: cycles simulated: 16000  inst.: 7963066 (ipc=497.7) sim_rate=169426 (inst/sec) elapsed = 0:0:00:47 / Wed Jan 30 15:37:16 2019
GPGPU-Sim PTX: 8200000 instructions simulated : ctaid=(3,2,0) tid=(6,14,0)
GPGPU-Sim PTX: 8300000 instructions simulated : ctaid=(0,3,0) tid=(11,0,0)
GPGPU-Sim uArch: Shader 13 finished CTA #1 (16228,0), 3 CTAs running
GPGPU-Sim uArch: core: 13, cta: 1 initialized @(16229,0)
GPGPU-Sim PTX: 8400000 instructions simulated : ctaid=(30,2,0) tid=(8,0,0)
GPGPU-Sim uArch: Shader 9 finished CTA #1 (16421,0), 3 CTAs running
GPGPU-Sim uArch: core:  9, cta: 1 initialized @(16422,0)
GPGPU-Sim uArch: Shader 4 finished CTA #1 (16483,0), 3 CTAs running
GPGPU-Sim uArch: core:  4, cta: 1 initialized @(16484,0)
GPGPU-Sim PTX: 8500000 instructions simulated : ctaid=(42,1,0) tid=(11,15,0)
GPGPU-Sim uArch: cycles simulated: 16500  inst.: 8309450 (ipc=503.6) sim_rate=169580 (inst/sec) elapsed = 0:0:00:49 / Wed Jan 30 15:37:18 2019
GPGPU-Sim uArch: Shader 3 finished CTA #0 (16509,0), 3 CTAs running
GPGPU-Sim uArch: core:  3, cta: 0 initialized @(16510,0)
GPGPU-Sim uArch: Shader 2 finished CTA #1 (16517,0), 3 CTAs running
GPGPU-Sim uArch: Shader 14 finished CTA #1 (16517,0), 3 CTAs running
GPGPU-Sim uArch: core: 14, cta: 1 initialized @(16518,0)
GPGPU-Sim uArch: core:  2, cta: 1 initialized @(16518,0)
GPGPU-Sim uArch: Shader 12 finished CTA #1 (16568,0), 3 CTAs running
GPGPU-Sim uArch: core: 12, cta: 1 initialized @(16569,0)
GPGPU-Sim PTX: 8600000 instructions simulated : ctaid=(30,2,0) tid=(2,9,0)
GPGPU-Sim uArch: Shader 1 finished CTA #1 (16644,0), 3 CTAs running
GPGPU-Sim uArch: core:  1, cta: 1 initialized @(16645,0)
GPGPU-Sim uArch: Shader 6 finished CTA #0 (16683,0), 3 CTAs running
GPGPU-Sim uArch: core:  6, cta: 0 initialized @(16684,0)
GPGPU-Sim PTX: 8700000 instructions simulated : ctaid=(10,2,0) tid=(13,2,0)
GPGPU-Sim uArch: Shader 10 finished CTA #1 (16840,0), 3 CTAs running
GPGPU-Sim uArch: core: 10, cta: 1 initialized @(16841,0)
GPGPU-Sim PTX: 8800000 instructions simulated : ctaid=(9,2,0) tid=(13,5,0)
GPGPU-Sim uArch: Shader 11 finished CTA #1 (16924,0), 3 CTAs running
GPGPU-Sim uArch: core: 11, cta: 1 initialized @(16925,0)
GPGPU-Sim uArch: Shader 0 finished CTA #1 (16954,0), 3 CTAs running
GPGPU-Sim uArch: core:  0, cta: 1 initialized @(16955,0)
GPGPU-Sim uArch: Shader 8 finished CTA #1 (16960,0), 3 CTAs running
GPGPU-Sim uArch: core:  8, cta: 1 initialized @(16961,0)
GPGPU-Sim uArch: Shader 5 finished CTA #1 (16983,0), 3 CTAs running
GPGPU-Sim uArch: core:  5, cta: 1 initialized @(16984,0)
GPGPU-Sim uArch: cycles simulated: 17000  inst.: 8655878 (ipc=509.2) sim_rate=169723 (inst/sec) elapsed = 0:0:00:51 / Wed Jan 30 15:37:20 2019
GPGPU-Sim PTX: 8900000 instructions simulated : ctaid=(5,2,0) tid=(7,8,0)
GPGPU-Sim uArch: Shader 7 finished CTA #1 (17105,0), 3 CTAs running
GPGPU-Sim uArch: core:  7, cta: 1 initialized @(17106,0)
GPGPU-Sim PTX: 9000000 instructions simulated : ctaid=(8,3,0) tid=(5,4,0)
GPGPU-Sim PTX: 9100000 instructions simulated : ctaid=(12,2,0) tid=(7,15,0)
GPGPU-Sim PTX: 9200000 instructions simulated : ctaid=(18,3,0) tid=(3,1,0)
GPGPU-Sim uArch: cycles simulated: 17500  inst.: 8984566 (ipc=513.4) sim_rate=169520 (inst/sec) elapsed = 0:0:00:53 / Wed Jan 30 15:37:22 2019
GPGPU-Sim PTX: 9300000 instructions simulated : ctaid=(12,2,0) tid=(11,10,0)
GPGPU-Sim PTX: 9400000 instructions simulated : ctaid=(13,2,0) tid=(5,9,0)
GPGPU-Sim PTX: 9500000 instructions simulated : ctaid=(17,2,0) tid=(5,6,0)
GPGPU-Sim uArch: cycles simulated: 18000  inst.: 9286690 (ipc=515.9) sim_rate=168848 (inst/sec) elapsed = 0:0:00:55 / Wed Jan 30 15:37:24 2019
GPGPU-Sim uArch: Shader 13 finished CTA #2 (18018,0), 3 CTAs running
GPGPU-Sim uArch: core: 13, cta: 2 initialized @(18019,0)
GPGPU-Sim uArch: Shader 2 finished CTA #2 (18053,0), 3 CTAs running
GPGPU-Sim uArch: core:  2, cta: 2 initialized @(18054,0)
GPGPU-Sim PTX: 9600000 instructions simulated : ctaid=(25,2,0) tid=(15,0,0)
GPGPU-Sim PTX: 9700000 instructions simulated : ctaid=(16,3,0) tid=(5,5,0)
GPGPU-Sim uArch: Shader 12 finished CTA #2 (18348,0), 3 CTAs running
GPGPU-Sim uArch: core: 12, cta: 2 initialized @(18349,0)
GPGPU-Sim uArch: Shader 14 finished CTA #2 (18354,0), 3 CTAs running
GPGPU-Sim uArch: core: 14, cta: 2 initialized @(18355,0)
GPGPU-Sim uArch: Shader 3 finished CTA #2 (18389,0), 3 CTAs running
GPGPU-Sim uArch: core:  3, cta: 2 initialized @(18390,0)
GPGPU-Sim PTX: 9800000 instructions simulated : ctaid=(1,3,0) tid=(1,13,0)
GPGPU-Sim uArch: Shader 1 finished CTA #2 (18426,0), 3 CTAs running
GPGPU-Sim uArch: core:  1, cta: 2 initialized @(18427,0)
GPGPU-Sim uArch: Shader 10 finished CTA #2 (18442,0), 3 CTAs running
GPGPU-Sim uArch: core: 10, cta: 2 initialized @(18443,0)
GPGPU-Sim uArch: Shader 4 finished CTA #2 (18472,0), 3 CTAs running
GPGPU-Sim uArch: core:  4, cta: 2 initialized @(18473,0)
GPGPU-Sim uArch: Shader 6 finished CTA #2 (18486,0), 3 CTAs running
GPGPU-Sim uArch: core:  6, cta: 2 initialized @(18487,0)
GPGPU-Sim uArch: Shader 9 finished CTA #2 (18489,0), 3 CTAs running
GPGPU-Sim uArch: core:  9, cta: 2 initialized @(18490,0)
GPGPU-Sim uArch: Shader 0 finished CTA #2 (18495,0), 3 CTAs running
GPGPU-Sim uArch: core:  0, cta: 2 initialized @(18496,0)
GPGPU-Sim uArch: cycles simulated: 18500  inst.: 9623510 (ipc=520.2) sim_rate=168833 (inst/sec) elapsed = 0:0:00:57 / Wed Jan 30 15:37:26 2019
GPGPU-Sim PTX: 9900000 instructions simulated : ctaid=(38,2,0) tid=(14,8,0)
GPGPU-Sim uArch: Shader 5 finished CTA #2 (18663,0), 3 CTAs running
GPGPU-Sim uArch: core:  5, cta: 2 initialized @(18664,0)
GPGPU-Sim PTX: 10000000 instructions simulated : ctaid=(29,3,0) tid=(5,2,0)
GPGPU-Sim uArch: Shader 8 finished CTA #2 (18701,0), 3 CTAs running
GPGPU-Sim uArch: core:  8, cta: 2 initialized @(18702,0)
GPGPU-Sim uArch: Shader 11 finished CTA #2 (18711,0), 3 CTAs running
GPGPU-Sim uArch: core: 11, cta: 2 initialized @(18712,0)
GPGPU-Sim uArch: Shader 7 finished CTA #2 (18827,0), 3 CTAs running
GPGPU-Sim uArch: core:  7, cta: 2 initialized @(18828,0)
GPGPU-Sim PTX: 10100000 instructions simulated : ctaid=(4,3,0) tid=(1,11,0)
GPGPU-Sim PTX: 10200000 instructions simulated : ctaid=(40,2,0) tid=(10,11,0)
GPGPU-Sim uArch: cycles simulated: 19000  inst.: 9968186 (ipc=524.6) sim_rate=171865 (inst/sec) elapsed = 0:0:00:58 / Wed Jan 30 15:37:27 2019
GPGPU-Sim PTX: 10300000 instructions simulated : ctaid=(3,3,0) tid=(12,6,0)
GPGPU-Sim PTX: 10400000 instructions simulated : ctaid=(38,2,0) tid=(12,10,0)
GPGPU-Sim uArch: Shader 6 finished CTA #3 (19386,0), 3 CTAs running
GPGPU-Sim uArch: core:  6, cta: 3 initialized @(19387,0)
GPGPU-Sim PTX: 10500000 instructions simulated : ctaid=(26,3,0) tid=(11,12,0)
GPGPU-Sim uArch: Shader 9 finished CTA #3 (19453,0), 3 CTAs running
GPGPU-Sim uArch: core:  9, cta: 3 initialized @(19454,0)
GPGPU-Sim uArch: cycles simulated: 19500  inst.: 10313925 (ipc=528.9) sim_rate=171898 (inst/sec) elapsed = 0:0:01:00 / Wed Jan 30 15:37:29 2019
GPGPU-Sim uArch: Shader 2 finished CTA #3 (19501,0), 3 CTAs running
GPGPU-Sim uArch: core:  2, cta: 3 initialized @(19502,0)
GPGPU-Sim PTX: 10600000 instructions simulated : ctaid=(31,2,0) tid=(7,4,0)
GPGPU-Sim uArch: Shader 10 finished CTA #3 (19577,0), 3 CTAs running
GPGPU-Sim uArch: core: 10, cta: 3 initialized @(19578,0)
GPGPU-Sim uArch: Shader 0 finished CTA #3 (19674,0), 3 CTAs running
GPGPU-Sim uArch: core:  0, cta: 3 initialized @(19675,0)
GPGPU-Sim PTX: 10700000 instructions simulated : ctaid=(34,3,0) tid=(11,8,0)
GPGPU-Sim uArch: Shader 5 finished CTA #3 (19744,0), 3 CTAs running
GPGPU-Sim uArch: core:  5, cta: 3 initialized @(19745,0)
GPGPU-Sim uArch: Shader 4 finished CTA #3 (19745,0), 3 CTAs running
GPGPU-Sim uArch: core:  4, cta: 3 initialized @(19746,0)
GPGPU-Sim uArch: Shader 13 finished CTA #3 (19773,0), 3 CTAs running
GPGPU-Sim uArch: core: 13, cta: 3 initialized @(19774,0)
GPGPU-Sim uArch: Shader 14 finished CTA #3 (19796,0), 3 CTAs running
GPGPU-Sim uArch: core: 14, cta: 3 initialized @(19797,0)
GPGPU-Sim PTX: 10800000 instructions simulated : ctaid=(34,2,0) tid=(3,14,0)
GPGPU-Sim uArch: Shader 1 finished CTA #3 (19850,0), 3 CTAs running
GPGPU-Sim uArch: core:  1, cta: 3 initialized @(19851,0)
GPGPU-Sim uArch: Shader 8 finished CTA #3 (19903,0), 3 CTAs running
GPGPU-Sim uArch: core:  8, cta: 3 initialized @(19904,0)
GPGPU-Sim uArch: Shader 11 finished CTA #3 (19920,0), 3 CTAs running
GPGPU-Sim uArch: core: 11, cta: 3 initialized @(19921,0)
GPGPU-Sim uArch: Shader 3 finished CTA #3 (19921,0), 3 CTAs running
GPGPU-Sim uArch: core:  3, cta: 3 initialized @(19922,0)
GPGPU-Sim uArch: Shader 7 finished CTA #3 (19937,0), 3 CTAs running
GPGPU-Sim uArch: core:  7, cta: 3 initialized @(19938,0)
GPGPU-Sim PTX: 10900000 instructions simulated : ctaid=(14,3,0) tid=(5,13,0)
GPGPU-Sim uArch: cycles simulated: 20000  inst.: 10654865 (ipc=532.7) sim_rate=171852 (inst/sec) elapsed = 0:0:01:02 / Wed Jan 30 15:37:31 2019
GPGPU-Sim uArch: Shader 12 finished CTA #3 (20001,0), 3 CTAs running
GPGPU-Sim uArch: core: 12, cta: 3 initialized @(20002,0)
GPGPU-Sim PTX: 11000000 instructions simulated : ctaid=(38,2,0) tid=(13,11,0)
GPGPU-Sim PTX: 11100000 instructions simulated : ctaid=(1,4,0) tid=(4,15,0)
GPGPU-Sim PTX: 11200000 instructions simulated : ctaid=(38,2,0) tid=(13,9,0)
GPGPU-Sim uArch: cycles simulated: 20500  inst.: 11028586 (ipc=538.0) sim_rate=172321 (inst/sec) elapsed = 0:0:01:04 / Wed Jan 30 15:37:33 2019
GPGPU-Sim PTX: 11300000 instructions simulated : ctaid=(38,2,0) tid=(9,10,0)
GPGPU-Sim PTX: 11400000 instructions simulated : ctaid=(34,2,0) tid=(7,14,0)
GPGPU-Sim PTX: 11500000 instructions simulated : ctaid=(4,3,0) tid=(5,0,0)
GPGPU-Sim PTX: 11600000 instructions simulated : ctaid=(10,3,0) tid=(4,14,0)
GPGPU-Sim uArch: cycles simulated: 21000  inst.: 11328870 (ipc=539.5) sim_rate=174290 (inst/sec) elapsed = 0:0:01:05 / Wed Jan 30 15:37:34 2019
GPGPU-Sim PTX: 11700000 instructions simulated : ctaid=(17,3,0) tid=(10,11,0)
GPGPU-Sim PTX: 11800000 instructions simulated : ctaid=(9,3,0) tid=(8,12,0)
GPGPU-Sim PTX: 11900000 instructions simulated : ctaid=(1,4,0) tid=(15,3,0)
GPGPU-Sim uArch: cycles simulated: 21500  inst.: 11639168 (ipc=541.4) sim_rate=173718 (inst/sec) elapsed = 0:0:01:07 / Wed Jan 30 15:37:36 2019
GPGPU-Sim PTX: 12000000 instructions simulated : ctaid=(7,3,0) tid=(11,8,0)
GPGPU-Sim uArch: Shader 2 finished CTA #0 (21683,0), 3 CTAs running
GPGPU-Sim uArch: core:  2, cta: 0 initialized @(21684,0)
GPGPU-Sim uArch: Shader 13 finished CTA #0 (21715,0), 3 CTAs running
GPGPU-Sim uArch: core: 13, cta: 0 initialized @(21716,0)
GPGPU-Sim PTX: 12100000 instructions simulated : ctaid=(5,3,0) tid=(9,12,0)
GPGPU-Sim uArch: Shader 12 finished CTA #0 (21789,0), 3 CTAs running
GPGPU-Sim uArch: core: 12, cta: 0 initialized @(21790,0)
GPGPU-Sim uArch: Shader 9 finished CTA #0 (21803,0), 3 CTAs running
GPGPU-Sim uArch: core:  9, cta: 0 initialized @(21804,0)
GPGPU-Sim PTX: 12200000 instructions simulated : ctaid=(17,3,0) tid=(9,11,0)
GPGPU-Sim uArch: Shader 6 finished CTA #1 (21908,0), 3 CTAs running
GPGPU-Sim uArch: core:  6, cta: 1 initialized @(21909,0)
GPGPU-Sim uArch: Shader 3 finished CTA #1 (21926,0), 3 CTAs running
GPGPU-Sim uArch: core:  3, cta: 1 initialized @(21927,0)
GPGPU-Sim uArch: Shader 4 finished CTA #0 (21929,0), 3 CTAs running
GPGPU-Sim uArch: core:  4, cta: 0 initialized @(21930,0)
GPGPU-Sim uArch: Shader 0 finished CTA #0 (21939,0), 3 CTAs running
GPGPU-Sim uArch: core:  0, cta: 0 initialized @(21940,0)
GPGPU-Sim uArch: Shader 10 finished CTA #0 (21991,0), 3 CTAs running
GPGPU-Sim uArch: core: 10, cta: 0 initialized @(21992,0)
GPGPU-Sim uArch: cycles simulated: 22000  inst.: 11993020 (ipc=545.1) sim_rate=173811 (inst/sec) elapsed = 0:0:01:09 / Wed Jan 30 15:37:38 2019
GPGPU-Sim PTX: 12300000 instructions simulated : ctaid=(30,3,0) tid=(2,13,0)
GPGPU-Sim uArch: Shader 1 finished CTA #0 (22031,0), 3 CTAs running
GPGPU-Sim uArch: core:  1, cta: 0 initialized @(22032,0)
GPGPU-Sim uArch: Shader 14 finished CTA #0 (22034,0), 3 CTAs running
GPGPU-Sim uArch: core: 14, cta: 0 initialized @(22035,0)
GPGPU-Sim uArch: Shader 5 finished CTA #0 (22036,0), 3 CTAs running
GPGPU-Sim uArch: core:  5, cta: 0 initialized @(22037,0)
GPGPU-Sim uArch: Shader 11 finished CTA #0 (22038,0), 3 CTAs running
GPGPU-Sim uArch: core: 11, cta: 0 initialized @(22039,0)
GPGPU-Sim uArch: Shader 8 finished CTA #0 (22110,0), 3 CTAs running
GPGPU-Sim uArch: core:  8, cta: 0 initialized @(22111,0)
GPGPU-Sim PTX: 12400000 instructions simulated : ctaid=(14,3,0) tid=(7,10,0)
GPGPU-Sim uArch: Shader 7 finished CTA #0 (22283,0), 3 CTAs running
GPGPU-Sim uArch: core:  7, cta: 0 initialized @(22284,0)
GPGPU-Sim PTX: 12500000 instructions simulated : ctaid=(22,3,0) tid=(4,1,0)
GPGPU-Sim PTX: 12600000 instructions simulated : ctaid=(19,4,0) tid=(9,6,0)
GPGPU-Sim uArch: cycles simulated: 22500  inst.: 12341668 (ipc=548.5) sim_rate=173826 (inst/sec) elapsed = 0:0:01:11 / Wed Jan 30 15:37:40 2019
GPGPU-Sim PTX: 12700000 instructions simulated : ctaid=(31,3,0) tid=(10,10,0)
GPGPU-Sim PTX: 12800000 instructions simulated : ctaid=(16,3,0) tid=(11,3,0)
GPGPU-Sim PTX: 12900000 instructions simulated : ctaid=(27,3,0) tid=(8,14,0)
GPGPU-Sim uArch: Shader 13 finished CTA #1 (22995,0), 3 CTAs running
GPGPU-Sim uArch: core: 13, cta: 1 initialized @(22996,0)
GPGPU-Sim uArch: cycles simulated: 23000  inst.: 12651098 (ipc=550.0) sim_rate=173302 (inst/sec) elapsed = 0:0:01:13 / Wed Jan 30 15:37:42 2019
GPGPU-Sim PTX: 13000000 instructions simulated : ctaid=(34,3,0) tid=(2,15,0)
GPGPU-Sim uArch: Shader 9 finished CTA #1 (23180,0), 3 CTAs running
GPGPU-Sim uArch: core:  9, cta: 1 initialized @(23181,0)
GPGPU-Sim PTX: 13100000 instructions simulated : ctaid=(38,3,0) tid=(2,5,0)
GPGPU-Sim uArch: Shader 3 finished CTA #0 (23262,0), 3 CTAs running
GPGPU-Sim uArch: core:  3, cta: 0 initialized @(23263,0)
GPGPU-Sim uArch: Shader 4 finished CTA #1 (23302,0), 3 CTAs running
GPGPU-Sim uArch: core:  4, cta: 1 initialized @(23303,0)
GPGPU-Sim PTX: 13200000 instructions simulated : ctaid=(20,3,0) tid=(3,5,0)
GPGPU-Sim uArch: Shader 12 finished CTA #1 (23358,0), 3 CTAs running
GPGPU-Sim uArch: core: 12, cta: 1 initialized @(23359,0)
GPGPU-Sim uArch: Shader 2 finished CTA #1 (23448,0), 3 CTAs running
GPGPU-Sim uArch: Shader 14 finished CTA #1 (23448,0), 3 CTAs running
GPGPU-Sim uArch: core: 14, cta: 1 initialized @(23449,0)
GPGPU-Sim uArch: core:  2, cta: 1 initialized @(23449,0)
GPGPU-Sim uArch: Shader 0 finished CTA #1 (23495,0), 3 CTAs running
GPGPU-Sim uArch: core:  0, cta: 1 initialized @(23496,0)
GPGPU-Sim uArch: cycles simulated: 23500  inst.: 12979485 (ipc=552.3) sim_rate=175398 (inst/sec) elapsed = 0:0:01:14 / Wed Jan 30 15:37:43 2019
GPGPU-Sim PTX: 13300000 instructions simulated : ctaid=(31,3,0) tid=(5,5,0)
GPGPU-Sim uArch: Shader 6 finished CTA #0 (23515,0), 3 CTAs running
GPGPU-Sim uArch: core:  6, cta: 0 initialized @(23516,0)
GPGPU-Sim uArch: Shader 11 finished CTA #1 (23534,0), 3 CTAs running
GPGPU-Sim uArch: core: 11, cta: 1 initialized @(23535,0)
GPGPU-Sim uArch: Shader 10 finished CTA #1 (23543,0), 3 CTAs running
GPGPU-Sim uArch: core: 10, cta: 1 initialized @(23544,0)
GPGPU-Sim uArch: Shader 1 finished CTA #1 (23633,0), 3 CTAs running
GPGPU-Sim uArch: core:  1, cta: 1 initialized @(23634,0)
GPGPU-Sim PTX: 13400000 instructions simulated : ctaid=(31,3,0) tid=(13,11,0)
GPGPU-Sim uArch: Shader 8 finished CTA #1 (23681,0), 3 CTAs running
GPGPU-Sim uArch: core:  8, cta: 1 initialized @(23682,0)
GPGPU-Sim uArch: Shader 5 finished CTA #1 (23703,0), 3 CTAs running
GPGPU-Sim uArch: core:  5, cta: 1 initialized @(23704,0)
GPGPU-Sim uArch: Shader 7 finished CTA #1 (23734,0), 3 CTAs running
GPGPU-Sim uArch: core:  7, cta: 1 initialized @(23735,0)
GPGPU-Sim PTX: 13500000 instructions simulated : ctaid=(5,4,0) tid=(3,1,0)
GPGPU-Sim PTX: 13600000 instructions simulated : ctaid=(25,4,0) tid=(7,5,0)
GPGPU-Sim uArch: cycles simulated: 24000  inst.: 13335713 (ipc=555.7) sim_rate=175469 (inst/sec) elapsed = 0:0:01:16 / Wed Jan 30 15:37:45 2019
GPGPU-Sim PTX: 13700000 instructions simulated : ctaid=(24,3,0) tid=(5,4,0)
GPGPU-Sim PTX: 13800000 instructions simulated : ctaid=(42,3,0) tid=(4,6,0)
GPGPU-Sim PTX: 13900000 instructions simulated : ctaid=(7,4,0) tid=(6,3,0)
GPGPU-Sim uArch: cycles simulated: 24500  inst.: 13638990 (ipc=556.7) sim_rate=174858 (inst/sec) elapsed = 0:0:01:18 / Wed Jan 30 15:37:47 2019
GPGPU-Sim PTX: 14000000 instructions simulated : ctaid=(29,3,0) tid=(9,10,0)
GPGPU-Sim PTX: 14100000 instructions simulated : ctaid=(5,4,0) tid=(8,11,0)
GPGPU-Sim PTX: 14200000 instructions simulated : ctaid=(25,4,0) tid=(3,8,0)
GPGPU-Sim PTX: 14300000 instructions simulated : ctaid=(23,3,0) tid=(3,3,0)
GPGPU-Sim uArch: Shader 9 finished CTA #2 (24979,0), 3 CTAs running
GPGPU-Sim uArch: core:  9, cta: 2 initialized @(24980,0)
GPGPU-Sim uArch: cycles simulated: 25000  inst.: 13980932 (ipc=559.2) sim_rate=174761 (inst/sec) elapsed = 0:0:01:20 / Wed Jan 30 15:37:49 2019
GPGPU-Sim uArch: Shader 0 finished CTA #2 (25011,0), 3 CTAs running
GPGPU-Sim uArch: core:  0, cta: 2 initialized @(25012,0)
GPGPU-Sim PTX: 14400000 instructions simulated : ctaid=(21,4,0) tid=(4,14,0)
GPGPU-Sim uArch: Shader 6 finished CTA #2 (25114,0), 3 CTAs running
GPGPU-Sim uArch: core:  6, cta: 2 initialized @(25115,0)
GPGPU-Sim uArch: Shader 10 finished CTA #2 (25164,0), 3 CTAs running
GPGPU-Sim uArch: core: 10, cta: 2 initialized @(25165,0)
GPGPU-Sim uArch: Shader 5 finished CTA #2 (25195,0), 3 CTAs running
GPGPU-Sim uArch: core:  5, cta: 2 initialized @(25196,0)
GPGPU-Sim uArch: Shader 4 finished CTA #2 (25211,0), 3 CTAs running
GPGPU-Sim uArch: core:  4, cta: 2 initialized @(25212,0)
GPGPU-Sim PTX: 14500000 instructions simulated : ctaid=(31,4,0) tid=(1,6,0)
GPGPU-Sim uArch: Shader 3 finished CTA #2 (25364,0), 3 CTAs running
GPGPU-Sim uArch: core:  3, cta: 2 initialized @(25365,0)
GPGPU-Sim PTX: 14600000 instructions simulated : ctaid=(31,4,0) tid=(15,11,0)
GPGPU-Sim uArch: Shader 1 finished CTA #2 (25421,0), 3 CTAs running
GPGPU-Sim uArch: core:  1, cta: 2 initialized @(25422,0)
GPGPU-Sim uArch: Shader 2 finished CTA #2 (25438,0), 3 CTAs running
GPGPU-Sim uArch: core:  2, cta: 2 initialized @(25439,0)
GPGPU-Sim uArch: Shader 13 finished CTA #2 (25444,0), 3 CTAs running
GPGPU-Sim uArch: core: 13, cta: 2 initialized @(25445,0)
GPGPU-Sim uArch: Shader 11 finished CTA #2 (25450,0), 3 CTAs running
GPGPU-Sim uArch: core: 11, cta: 2 initialized @(25451,0)
GPGPU-Sim uArch: Shader 14 finished CTA #2 (25480,0), 3 CTAs running
GPGPU-Sim uArch: core: 14, cta: 2 initialized @(25481,0)
GPGPU-Sim uArch: Shader 12 finished CTA #2 (25483,0), 3 CTAs running
GPGPU-Sim uArch: core: 12, cta: 2 initialized @(25484,0)
GPGPU-Sim uArch: Shader 8 finished CTA #2 (25494,0), 3 CTAs running
GPGPU-Sim uArch: core:  8, cta: 2 initialized @(25495,0)
GPGPU-Sim uArch: cycles simulated: 25500  inst.: 14338597 (ipc=562.3) sim_rate=174860 (inst/sec) elapsed = 0:0:01:22 / Wed Jan 30 15:37:51 2019
GPGPU-Sim uArch: Shader 7 finished CTA #2 (25507,0), 3 CTAs running
GPGPU-Sim uArch: core:  7, cta: 2 initialized @(25508,0)
GPGPU-Sim PTX: 14700000 instructions simulated : ctaid=(21,4,0) tid=(2,13,0)
GPGPU-Sim PTX: 14800000 instructions simulated : ctaid=(9,5,0) tid=(11,12,0)
GPGPU-Sim PTX: 14900000 instructions simulated : ctaid=(36,3,0) tid=(9,6,0)
GPGPU-Sim PTX: 15000000 instructions simulated : ctaid=(22,4,0) tid=(4,2,0)
GPGPU-Sim uArch: cycles simulated: 26000  inst.: 14683250 (ipc=564.7) sim_rate=176906 (inst/sec) elapsed = 0:0:01:23 / Wed Jan 30 15:37:52 2019
GPGPU-Sim PTX: 15100000 instructions simulated : ctaid=(19,4,0) tid=(10,6,0)
GPGPU-Sim PTX: 15200000 instructions simulated : ctaid=(38,4,0) tid=(7,10,0)
GPGPU-Sim PTX: 15300000 instructions simulated : ctaid=(5,5,0) tid=(1,7,0)
GPGPU-Sim uArch: cycles simulated: 26500  inst.: 14981938 (ipc=565.4) sim_rate=176258 (inst/sec) elapsed = 0:0:01:25 / Wed Jan 30 15:37:54 2019
GPGPU-Sim uArch: Shader 2 finished CTA #3 (26573,0), 3 CTAs running
GPGPU-Sim uArch: core:  2, cta: 3 initialized @(26574,0)
GPGPU-Sim uArch: Shader 13 finished CTA #3 (26577,0), 3 CTAs running
GPGPU-Sim uArch: core: 13, cta: 3 initialized @(26578,0)
GPGPU-Sim PTX: 15400000 instructions simulated : ctaid=(19,4,0) tid=(6,14,0)
GPGPU-Sim uArch: Shader 9 finished CTA #3 (26698,0), 3 CTAs running
GPGPU-Sim uArch: core:  9, cta: 3 initialized @(26699,0)
GPGPU-Sim uArch: Shader 14 finished CTA #3 (26716,0), 3 CTAs running
GPGPU-Sim uArch: core: 14, cta: 3 initialized @(26717,0)
GPGPU-Sim PTX: 15500000 instructions simulated : ctaid=(20,4,0) tid=(7,11,0)
GPGPU-Sim uArch: Shader 10 finished CTA #3 (26786,0), 3 CTAs running
GPGPU-Sim uArch: core: 10, cta: 3 initialized @(26787,0)
GPGPU-Sim uArch: Shader 6 finished CTA #3 (26870,0), 3 CTAs running
GPGPU-Sim uArch: core:  6, cta: 3 initialized @(26871,0)
GPGPU-Sim PTX: 15600000 instructions simulated : ctaid=(32,4,0) tid=(11,2,0)
GPGPU-Sim uArch: Shader 3 finished CTA #3 (26945,0), 3 CTAs running
GPGPU-Sim uArch: core:  3, cta: 3 initialized @(26946,0)
GPGPU-Sim uArch: Shader 1 finished CTA #3 (26978,0), 3 CTAs running
GPGPU-Sim uArch: core:  1, cta: 3 initialized @(26979,0)
GPGPU-Sim uArch: cycles simulated: 27000  inst.: 15315034 (ipc=567.2) sim_rate=176034 (inst/sec) elapsed = 0:0:01:27 / Wed Jan 30 15:37:56 2019
GPGPU-Sim PTX: 15700000 instructions simulated : ctaid=(11,4,0) tid=(11,11,0)
GPGPU-Sim uArch: Shader 12 finished CTA #3 (27040,0), 3 CTAs running
GPGPU-Sim uArch: core: 12, cta: 3 initialized @(27041,0)
GPGPU-Sim uArch: Shader 5 finished CTA #3 (27085,0), 3 CTAs running
GPGPU-Sim uArch: core:  5, cta: 3 initialized @(27086,0)
GPGPU-Sim uArch: Shader 0 finished CTA #3 (27111,0), 3 CTAs running
GPGPU-Sim uArch: core:  0, cta: 3 initialized @(27112,0)
GPGPU-Sim uArch: Shader 11 finished CTA #3 (27138,0), 3 CTAs running
GPGPU-Sim uArch: core: 11, cta: 3 initialized @(27139,0)
GPGPU-Sim PTX: 15800000 instructions simulated : ctaid=(17,4,0) tid=(11,1,0)
GPGPU-Sim uArch: Shader 4 finished CTA #3 (27159,0), 3 CTAs running
GPGPU-Sim uArch: core:  4, cta: 3 initialized @(27160,0)
GPGPU-Sim uArch: Shader 7 finished CTA #3 (27235,0), 3 CTAs running
GPGPU-Sim uArch: core:  7, cta: 3 initialized @(27236,0)
GPGPU-Sim uArch: Shader 8 finished CTA #3 (27242,0), 3 CTAs running
GPGPU-Sim uArch: core:  8, cta: 3 initialized @(27243,0)
GPGPU-Sim PTX: 15900000 instructions simulated : ctaid=(10,4,0) tid=(3,3,0)
GPGPU-Sim PTX: 16000000 instructions simulated : ctaid=(16,5,0) tid=(3,0,0)
GPGPU-Sim uArch: cycles simulated: 27500  inst.: 15666142 (ipc=569.7) sim_rate=176024 (inst/sec) elapsed = 0:0:01:29 / Wed Jan 30 15:37:58 2019
GPGPU-Sim PTX: 16100000 instructions simulated : ctaid=(32,4,0) tid=(4,6,0)
GPGPU-Sim PTX: 16200000 instructions simulated : ctaid=(29,4,0) tid=(4,4,0)
GPGPU-Sim PTX: 16300000 instructions simulated : ctaid=(11,4,0) tid=(9,4,0)
GPGPU-Sim uArch: cycles simulated: 28000  inst.: 15984912 (ipc=570.9) sim_rate=177610 (inst/sec) elapsed = 0:0:01:30 / Wed Jan 30 15:37:59 2019
GPGPU-Sim PTX: 16400000 instructions simulated : ctaid=(8,4,0) tid=(9,2,0)
GPGPU-Sim PTX: 16500000 instructions simulated : ctaid=(10,4,0) tid=(9,12,0)
GPGPU-Sim uArch: Shader 6 finished CTA #1 (28306,0), 3 CTAs running
GPGPU-Sim uArch: core:  6, cta: 1 initialized @(28307,0)
GPGPU-Sim PTX: 16600000 instructions simulated : ctaid=(0,5,0) tid=(7,14,0)
GPGPU-Sim PTX: 16700000 instructions simulated : ctaid=(26,4,0) tid=(10,11,0)
GPGPU-Sim uArch: Shader 3 finished CTA #1 (28493,0), 3 CTAs running
GPGPU-Sim uArch: core:  3, cta: 1 initialized @(28494,0)
GPGPU-Sim uArch: cycles simulated: 28500  inst.: 16332460 (ipc=573.1) sim_rate=177526 (inst/sec) elapsed = 0:0:01:32 / Wed Jan 30 15:38:01 2019
GPGPU-Sim uArch: Shader 9 finished CTA #0 (28515,0), 3 CTAs running
GPGPU-Sim uArch: core:  9, cta: 0 initialized @(28516,0)
GPGPU-Sim uArch: Shader 4 finished CTA #0 (28547,0), 3 CTAs running
GPGPU-Sim uArch: core:  4, cta: 0 initialized @(28548,0)
GPGPU-Sim uArch: Shader 0 finished CTA #0 (28561,0), 3 CTAs running
GPGPU-Sim uArch: core:  0, cta: 0 initialized @(28562,0)
GPGPU-Sim PTX: 16800000 instructions simulated : ctaid=(7,5,0) tid=(9,11,0)
GPGPU-Sim uArch: Shader 2 finished CTA #0 (28640,0), 3 CTAs running
GPGPU-Sim uArch: core:  2, cta: 0 initialized @(28641,0)
GPGPU-Sim uArch: Shader 13 finished CTA #0 (28652,0), 3 CTAs running
GPGPU-Sim uArch: core: 13, cta: 0 initialized @(28653,0)
GPGPU-Sim uArch: Shader 12 finished CTA #0 (28670,0), 3 CTAs running
GPGPU-Sim uArch: core: 12, cta: 0 initialized @(28671,0)
GPGPU-Sim uArch: Shader 10 finished CTA #0 (28708,0), 3 CTAs running
GPGPU-Sim uArch: core: 10, cta: 0 initialized @(28709,0)
GPGPU-Sim PTX: 16900000 instructions simulated : ctaid=(4,5,0) tid=(9,11,0)
GPGPU-Sim uArch: Shader 5 finished CTA #0 (28765,0), 3 CTAs running
GPGPU-Sim uArch: core:  5, cta: 0 initialized @(28766,0)
GPGPU-Sim uArch: Shader 7 finished CTA #0 (28783,0), 3 CTAs running
GPGPU-Sim uArch: core:  7, cta: 0 initialized @(28784,0)
GPGPU-Sim uArch: Shader 11 finished CTA #0 (28798,0), 3 CTAs running
GPGPU-Sim uArch: core: 11, cta: 0 initialized @(28799,0)
GPGPU-Sim uArch: Shader 1 finished CTA #0 (28802,0), 3 CTAs running
GPGPU-Sim uArch: core:  1, cta: 0 initialized @(28803,0)
GPGPU-Sim uArch: Shader 8 finished CTA #0 (28850,0), 3 CTAs running
GPGPU-Sim uArch: core:  8, cta: 0 initialized @(28851,0)
GPGPU-Sim PTX: 17000000 instructions simulated : ctaid=(8,5,0) tid=(11,3,0)
GPGPU-Sim uArch: Shader 14 finished CTA #0 (28906,0), 3 CTAs running
GPGPU-Sim uArch: core: 14, cta: 0 initialized @(28907,0)
GPGPU-Sim uArch: cycles simulated: 29000  inst.: 16692893 (ipc=575.6) sim_rate=177583 (inst/sec) elapsed = 0:0:01:34 / Wed Jan 30 15:38:03 2019
GPGPU-Sim PTX: 17100000 instructions simulated : ctaid=(39,4,0) tid=(9,5,0)
GPGPU-Sim PTX: 17200000 instructions simulated : ctaid=(39,4,0) tid=(13,15,0)
GPGPU-Sim PTX: 17300000 instructions simulated : ctaid=(33,4,0) tid=(7,11,0)
GPGPU-Sim PTX: 17400000 instructions simulated : ctaid=(30,5,0) tid=(3,7,0)
GPGPU-Sim uArch: cycles simulated: 29500  inst.: 17026362 (ipc=577.2) sim_rate=177357 (inst/sec) elapsed = 0:0:01:36 / Wed Jan 30 15:38:05 2019
GPGPU-Sim PTX: 17500000 instructions simulated : ctaid=(36,4,0) tid=(3,2,0)
GPGPU-Sim PTX: 17600000 instructions simulated : ctaid=(23,4,0) tid=(12,12,0)
GPGPU-Sim PTX: 17700000 instructions simulated : ctaid=(17,5,0) tid=(7,10,0)
GPGPU-Sim uArch: Shader 13 finished CTA #1 (29968,0), 3 CTAs running
GPGPU-Sim uArch: core: 13, cta: 1 initialized @(29969,0)
GPGPU-Sim uArch: cycles simulated: 30000  inst.: 17318618 (ipc=577.3) sim_rate=178542 (inst/sec) elapsed = 0:0:01:37 / Wed Jan 30 15:38:06 2019
GPGPU-Sim PTX: 17800000 instructions simulated : ctaid=(32,4,0) tid=(12,9,0)
GPGPU-Sim PTX: 17900000 instructions simulated : ctaid=(37,4,0) tid=(2,4,0)
GPGPU-Sim uArch: Shader 14 finished CTA #1 (30272,0), 3 CTAs running
GPGPU-Sim uArch: core: 14, cta: 1 initialized @(30273,0)
GPGPU-Sim uArch: Shader 9 finished CTA #1 (30303,0), 3 CTAs running
GPGPU-Sim uArch: core:  9, cta: 1 initialized @(30304,0)
GPGPU-Sim uArch: Shader 3 finished CTA #0 (30344,0), 3 CTAs running
GPGPU-Sim uArch: core:  3, cta: 0 initialized @(30345,0)
GPGPU-Sim PTX: 18000000 instructions simulated : ctaid=(17,5,0) tid=(15,11,0)
GPGPU-Sim uArch: Shader 4 finished CTA #1 (30412,0), 3 CTAs running
GPGPU-Sim uArch: core:  4, cta: 1 initialized @(30413,0)
GPGPU-Sim uArch: Shader 2 finished CTA #1 (30450,0), 3 CTAs running
GPGPU-Sim uArch: core:  2, cta: 1 initialized @(30451,0)
GPGPU-Sim uArch: Shader 0 finished CTA #1 (30463,0), 3 CTAs running
GPGPU-Sim uArch: core:  0, cta: 1 initialized @(30464,0)
GPGPU-Sim uArch: Shader 6 finished CTA #0 (30468,0), 3 CTAs running
GPGPU-Sim uArch: core:  6, cta: 0 initialized @(30469,0)
GPGPU-Sim uArch: cycles simulated: 30500  inst.: 17646494 (ipc=578.6) sim_rate=178247 (inst/sec) elapsed = 0:0:01:39 / Wed Jan 30 15:38:08 2019
GPGPU-Sim uArch: Shader 12 finished CTA #1 (30505,0), 3 CTAs running
GPGPU-Sim uArch: core: 12, cta: 1 initialized @(30506,0)
GPGPU-Sim PTX: 18100000 instructions simulated : ctaid=(21,5,0) tid=(13,9,0)
GPGPU-Sim uArch: Shader 1 finished CTA #1 (30609,0), 3 CTAs running
GPGPU-Sim uArch: core:  1, cta: 1 initialized @(30610,0)
GPGPU-Sim uArch: Shader 10 finished CTA #1 (30642,0), 3 CTAs running
GPGPU-Sim uArch: core: 10, cta: 1 initialized @(30643,0)
GPGPU-Sim uArch: Shader 5 finished CTA #1 (30646,0), 3 CTAs running
GPGPU-Sim uArch: core:  5, cta: 1 initialized @(30647,0)
GPGPU-Sim uArch: Shader 11 finished CTA #1 (30650,0), 3 CTAs running
GPGPU-Sim uArch: core: 11, cta: 1 initialized @(30651,0)
GPGPU-Sim PTX: 18200000 instructions simulated : ctaid=(0,5,0) tid=(3,10,0)
GPGPU-Sim uArch: Shader 8 finished CTA #1 (30675,0), 3 CTAs running
GPGPU-Sim uArch: core:  8, cta: 1 initialized @(30676,0)
GPGPU-Sim PTX: 18300000 instructions simulated : ctaid=(40,4,0) tid=(11,15,0)
GPGPU-Sim uArch: Shader 7 finished CTA #1 (30880,0), 3 CTAs running
GPGPU-Sim uArch: core:  7, cta: 1 initialized @(30881,0)
GPGPU-Sim PTX: 18400000 instructions simulated : ctaid=(17,5,0) tid=(4,4,0)
GPGPU-Sim uArch: cycles simulated: 31000  inst.: 17999582 (ipc=580.6) sim_rate=178213 (inst/sec) elapsed = 0:0:01:41 / Wed Jan 30 15:38:10 2019
GPGPU-Sim PTX: 18500000 instructions simulated : ctaid=(24,5,0) tid=(4,5,0)
GPGPU-Sim PTX: 18600000 instructions simulated : ctaid=(11,5,0) tid=(8,9,0)
GPGPU-Sim PTX: 18700000 instructions simulated : ctaid=(15,5,0) tid=(6,8,0)
GPGPU-Sim uArch: cycles simulated: 31500  inst.: 18325866 (ipc=581.8) sim_rate=177921 (inst/sec) elapsed = 0:0:01:43 / Wed Jan 30 15:38:12 2019
GPGPU-Sim PTX: 18800000 instructions simulated : ctaid=(16,5,0) tid=(6,7,0)
GPGPU-Sim uArch: Shader 9 finished CTA #2 (31660,0), 3 CTAs running
GPGPU-Sim uArch: core:  9, cta: 2 initialized @(31661,0)
GPGPU-Sim PTX: 18900000 instructions simulated : ctaid=(31,5,0) tid=(9,3,0)
GPGPU-Sim uArch: Shader 13 finished CTA #2 (31722,0), 3 CTAs running
GPGPU-Sim uArch: core: 13, cta: 2 initialized @(31723,0)
GPGPU-Sim uArch: Shader 5 finished CTA #2 (31759,0), 3 CTAs running
GPGPU-Sim uArch: core:  5, cta: 2 initialized @(31760,0)
GPGPU-Sim uArch: Shader 2 finished CTA #2 (31761,0), 3 CTAs running
GPGPU-Sim uArch: core:  2, cta: 2 initialized @(31762,0)
GPGPU-Sim uArch: Shader 0 finished CTA #2 (31770,0), 3 CTAs running
GPGPU-Sim uArch: core:  0, cta: 2 initialized @(31771,0)
GPGPU-Sim PTX: 19000000 instructions simulated : ctaid=(30,5,0) tid=(1,12,0)
GPGPU-Sim uArch: Shader 10 finished CTA #2 (31849,0), 3 CTAs running
GPGPU-Sim uArch: core: 10, cta: 2 initialized @(31850,0)
GPGPU-Sim uArch: Shader 6 finished CTA #2 (31880,0), 3 CTAs running
GPGPU-Sim uArch: core:  6, cta: 2 initialized @(31881,0)
GPGPU-Sim uArch: Shader 4 finished CTA #2 (31926,0), 3 CTAs running
GPGPU-Sim uArch: core:  4, cta: 2 initialized @(31927,0)
GPGPU-Sim PTX: 19100000 instructions simulated : ctaid=(19,5,0) tid=(4,11,0)
GPGPU-Sim uArch: Shader 3 finished CTA #2 (31986,0), 3 CTAs running
GPGPU-Sim uArch: core:  3, cta: 2 initialized @(31987,0)
GPGPU-Sim uArch: cycles simulated: 32000  inst.: 18681144 (ipc=583.8) sim_rate=177915 (inst/sec) elapsed = 0:0:01:45 / Wed Jan 30 15:38:14 2019
GPGPU-Sim uArch: Shader 14 finished CTA #2 (32005,0), 3 CTAs running
GPGPU-Sim uArch: core: 14, cta: 2 initialized @(32006,0)
GPGPU-Sim uArch: Shader 1 finished CTA #2 (32031,0), 3 CTAs running
GPGPU-Sim uArch: core:  1, cta: 2 initialized @(32032,0)
GPGPU-Sim uArch: Shader 12 finished CTA #2 (32051,0), 3 CTAs running
GPGPU-Sim uArch: core: 12, cta: 2 initialized @(32052,0)
GPGPU-Sim PTX: 19200000 instructions simulated : ctaid=(15,5,0) tid=(4,1,0)
GPGPU-Sim uArch: Shader 11 finished CTA #2 (32127,0), 3 CTAs running
GPGPU-Sim uArch: core: 11, cta: 2 initialized @(32128,0)
GPGPU-Sim uArch: Shader 8 finished CTA #2 (32154,0), 3 CTAs running
GPGPU-Sim uArch: core:  8, cta: 2 initialized @(32155,0)
GPGPU-Sim PTX: 19300000 instructions simulated : ctaid=(24,5,0) tid=(10,10,0)
GPGPU-Sim uArch: Shader 7 finished CTA #2 (32334,0), 3 CTAs running
GPGPU-Sim uArch: core:  7, cta: 2 initialized @(32335,0)
GPGPU-Sim PTX: 19400000 instructions simulated : ctaid=(24,6,0) tid=(15,1,0)
GPGPU-Sim PTX: 19500000 instructions simulated : ctaid=(22,5,0) tid=(5,0,0)
GPGPU-Sim uArch: cycles simulated: 32500  inst.: 19055358 (ipc=586.3) sim_rate=178087 (inst/sec) elapsed = 0:0:01:47 / Wed Jan 30 15:38:16 2019
GPGPU-Sim PTX: 19600000 instructions simulated : ctaid=(27,5,0) tid=(10,5,0)
GPGPU-Sim PTX: 19700000 instructions simulated : ctaid=(14,5,0) tid=(9,10,0)
GPGPU-Sim PTX: 19800000 instructions simulated : ctaid=(15,5,0) tid=(11,3,0)
GPGPU-Sim uArch: cycles simulated: 33000  inst.: 19377596 (ipc=587.2) sim_rate=177776 (inst/sec) elapsed = 0:0:01:49 / Wed Jan 30 15:38:18 2019
GPGPU-Sim PTX: 19900000 instructions simulated : ctaid=(17,5,0) tid=(5,3,0)
GPGPU-Sim PTX: 20000000 instructions simulated : ctaid=(12,5,0) tid=(13,4,0)
GPGPU-Sim PTX: 20100000 instructions simulated : ctaid=(6,6,0) tid=(3,15,0)
GPGPU-Sim uArch: cycles simulated: 33500  inst.: 19667012 (ipc=587.1) sim_rate=178791 (inst/sec) elapsed = 0:0:01:50 / Wed Jan 30 15:38:19 2019
GPGPU-Sim PTX: 20200000 instructions simulated : ctaid=(41,5,0) tid=(11,13,0)
GPGPU-Sim uArch: Shader 9 finished CTA #3 (33694,0), 3 CTAs running
GPGPU-Sim uArch: core:  9, cta: 3 initialized @(33695,0)
[...]
gpgpu_stall_shd_mem[l_mem_ld][mshr_rc] = 0
gpgpu_stall_shd_mem[l_mem_ld][icnt_rc] = 0
gpgpu_stall_shd_mem[l_mem_ld][wb_icnt_rc] = 0
gpgpu_stall_shd_mem[l_mem_ld][wb_rsrv_fail] = 0
gpgpu_stall_shd_mem[l_mem_st][mshr_rc] = 0
gpgpu_stall_shd_mem[l_mem_st][icnt_rc] = 0
gpgpu_stall_shd_mem[l_mem_ld][wb_icnt_rc] = 0
gpgpu_stall_shd_mem[l_mem_ld][wb_rsrv_fail] = 0
gpu_reg_bank_conflict_stalls = 0
Warp Occupancy Distribution:
Stall:786479	W0_Idle:48538	W0_Scoreboard:532751	W1:0	W2:256	W3:0	W4:14792	W5:0	W6:0	W7:0	W8:15048	W9:3864	W10:256	W11:0	W12:0	W13:3864	W14:161868	W15:84	W16:16640	W17:0	W18:11776	W19:84	W20:7140	W21:0	W22:0	W23:0	W24:1338720	W25:0	W26:11776	W27:0	W28:1126184	W29:0	W30:0	W31:0	W32:2449792
traffic_breakdown_coretomem[CONST_ACC_R] = 120 {8:15,}
traffic_breakdown_coretomem[GLOBAL_ACC_R] = 667600 {8:83450,}
traffic_breakdown_coretomem[GLOBAL_ACC_W] = 1970176 {40:10752,72:10752,136:5632,}
traffic_breakdown_coretomem[INST_ACC_R] = 40808 {8:5101,}
traffic_breakdown_memtocore[CONST_ACC_R] = 1080 {72:15,}
traffic_breakdown_memtocore[GLOBAL_ACC_R] = 11349200 {136:83450,}
traffic_breakdown_memtocore[GLOBAL_ACC_W] = 217088 {8:27136,}
traffic_breakdown_memtocore[INST_ACC_R] = 693736 {136:5101,}
maxmrqlatency = 258 
maxdqlatency = 0 
maxmflatency = 838 
averagemflatency = 220 
max_icnt2mem_latency = 398 
max_icnt2sh_latency = 218609 
mrq_lat_table:19066 	947 	2132 	2224 	5909 	7093 	5792 	2609 	1 	0 	0 	0 	0 	0 	0 	0 	0 	0 	0 	0 	0 	0 	0 	0 	0 	0 	0 	0 	0 	0 	0 	0 	
dq_lat_table:0 	0 	0 	0 	0 	0 	0 	0 	0 	0 	0 	0 	0 	0 	0 	0 	0 	0 	0 	0 	0 	0 	0 	0 	0 	0 	0 	0 	0 	0 	0 	0 	
mf_lat_table:0 	0 	0 	0 	0 	0 	0 	71242 	38536 	823 	0 	0 	0 	0 	0 	0 	0 	0 	0 	0 	0 	0 	0 	0 	0 	0 	0 	0 	0 	0 	0 	0 	
icnt2mem_lat_table:0 	0 	0 	84041 	15615 	13793 	1865 	370 	18 	0 	0 	0 	0 	0 	0 	0 	0 	0 	0 	0 	0 	0 	0 	0 	
icnt2sh_lat_table:0 	0 	0 	28787 	47020 	7593 	65 	0 	0 	0 	0 	0 	0 	1123 	2201 	4224 	8419 	11169 	0 	0 	0 	0 	0 	0 	
mf_lat_pw_table:0 	0 	0 	0 	0 	0 	0 	390 	32 	1 	0 	0 	0 	0 	0 	0 	0 	0 	0 	0 	0 	0 	0 	0 	0 	0 	0 	0 	0 	0 	0 	0 	
maximum concurrent accesses to same row:
dram[0]:       108       122        99       109       109       112       100        89        83       100       100       116       106       100       100       105 
dram[1]:       114       109        99       106       106       106       107       109       108        98        94       107        97       120        98        98 
dram[2]:       122       109       109       100       114       111        89        99       100        82       120        99       100       106       109       100 
dram[3]:       106       114       105       100       106       105       109       106        98       108       107        95       117        96       100        98 
dram[4]:       107       120        99       109       109       109       101        90        82        99       100       119       110        99        99       108 
dram[5]:       112       106        99       104       107       107       105       110       108        93        97       106        96       114        97        99 
maximum service time to same row:
dram[0]:     24203     24179     25849     25856     25600     26018     34902     35339     34508     35906     34942     34990     33817     35824     36260     34577 
dram[1]:     25207     24080     24375     24805     24632     26235     35124     36460     35969     36930     36488     34967     34552     35137     34431     35551 
dram[2]:     24190     24478     25855     25849     26041     26163     35337     34887     35797     34153     34986     34275     35822     33221     34571     36019 
dram[3]:     24076     26000     24805     24567     26279     24720     36460     35092     36906     35630     34957     35763     35127     34060     35551     33851 
dram[4]:     24043     25059     25852     26500     24263     26041     34903     35310     34493     35684     34952     34429     33817     34792     36274     34110 
dram[5]:     25207     24401     24376     25065     24632     26295     35126     36433     36023     36792     36496     34461     34539     34589     34430     34933 
average row accesses per activate:
dram[0]:  6.756757  7.333333  6.200000  6.097561  7.308824  6.097561  6.666667  5.217391  5.546512  6.132530  5.848101  6.676056  5.525641  5.070588  5.697369  5.625000 
dram[1]:  9.145454  7.328358  5.821429  7.308824  7.447761  5.019802  7.214286  7.013889  6.125000  5.939024  5.010989  7.508197  5.219512  7.892857  4.976744  5.362500 
dram[2]:  6.883117  7.382353  6.225000  5.835294  6.172840  6.944445  4.790000  5.647059  6.723684  5.454545  7.619048  5.000000  5.256098  5.631579  5.700000  5.333333 
dram[3]:  6.712329  8.754386  7.545455  5.444445  5.451613  6.428571  6.182927  7.200000  6.087500  6.137500  6.652174  4.757895  7.333333  5.350000  5.240964  4.563830 
dram[4]:  7.084507  7.121622  6.346154  5.670455  6.626667  6.666667  6.192307  4.989583  5.459770  6.023809  5.721519  6.869565  6.260870  5.180723  5.810811  6.108108 
dram[5]:  8.474576  7.439394  5.697674  7.983871  6.890411  5.326316  7.382353  6.219512  6.434210  5.674418  4.585859  7.222222  5.350000  7.032258  4.863636  5.154762 
average row locality = 45773/7479 = 6.120203
number of total memory accesses made:
dram[0]:         0         0         0         0         0         0         0         0         0         0         0         0         0         0         0         0 
dram[1]:         0         0         0         0         0         0         0         0         0         0         0         0         0         0         0         0 
dram[2]:         0         0         0         0         0         0         0         0         0         0         0         0         0         0         0         0 
dram[3]:         0         0         0         0         0         0         0         0         0         0         0         0         0         0         0         0 
dram[4]:         0         0         0         0         0         0         0         0         0         0         0         0         0         0         0         0 
dram[5]:         0         0         0         0         0         0         0         0         0         0         0         0         0         0         0         0 
total accesses: 0
min_bank_accesses = 0!
min_chip_accesses = 0!
number of total read accesses:
dram[0]:       259       258       256       256       256       256       256       256       256       256       256       256       256       256       256       256 
dram[1]:       258       258       256       256       256       256       256       256       256       256       256       256       256       256       256       256 
dram[2]:       258       257       256       256       256       256       256       256       256       256       256       256       256       256       256       256 
dram[3]:       258       256       256       256       256       256       256       256       256       256       256       256       256       256       256       256 
dram[4]:       258       256       256       256       256       256       256       256       256       256       256       256       256       256       256       256 
dram[5]:       258       256       256       256       256       256       256       256       256       256       256       256       256       256       256       256 
total reads: 24594
bank skew: 259/256 = 1.01
chip skew: 4101/4098 = 1.00
number of total write accesses:
dram[0]:       241       270       240       244       241       244       224       224       221       253       206       218       175       175       177       194 
dram[1]:       245       233       233       241       243       251       249       249       234       231       200       202       172       186       172       173 
dram[2]:       272       245       242       240       244       244       223       224       255       224       224       199       175       172       200       176 
dram[3]:       232       243       242       234       251       239       251       248       231       235       203       196       184       172       179       173 
dram[4]:       245       271       239       243       241       244       227       223       219       250       196       218       176       174       174       196 
dram[5]:       242       235       234       239       247       250       246       254       233       232       198       199       172       180       172       177 
total reads: 21179
bank skew: 272/172 = 1.58
chip skew: 3559/3510 = 1.01
average mf latency per bank:
dram[0]:        517       511       479       503       486       515       520       558       491       497       536       600       580       611       547       575
dram[1]:        510       535       492       510       508       493       525       534       498       502       555       570       624       626       566       584
dram[2]:        501       512       487       480       498       485       528       526       482       494       545       546       610       587       553       557
dram[3]:        517       519       500       487       474       509       515       532       490       503       556       567       618       603       559       564
dram[4]:        515       496       496       490       497       500       536       543       498       491       577       571       595       597       573       563
dram[5]:        522       516       500       500       517       481       550       508       518       491       571       552       651       601       582       565
maximum mf latency per bank:
dram[0]:        838       648       568       488       597       515       618       584       508       438       534       671       533       519       478       524
dram[1]:        807       658       444       518       538       536       564       529       515       485       526       488       566       581       483       566
dram[2]:        658       810       482       577       459       526       521       564       505       583       521       513       539       596       520       481
dram[3]:        625       832       483       452       533       538       551       577       515       507       497       550       557       538       574       481
dram[4]:        801       610       562       520       735       472       706       586       500       447       623       509       592       485       481       521
dram[5]:        804       636       418       498       540       540       686       500       677       501       468       492       715       550       510       560
Memory Partition 0: 
Cache L2_bank_000:
MSHR contents

Cache L2_bank_001:
MSHR contents

In Dram Latency Queue (total = 0): 
DRAM[0]: 16 bks, busW=4 BL=8 CL=12, tRRD=2 tCCD=6, tRCD=12 tRAS=28 tRP=12 tRC=40
n_cmd=218610 n_nop=203033 n_act=1260 n_pre=1244 n_req=7648 n_rd=8202 n_write=4871 bw_util=0.1196
n_activity=100163 dram_eff=0.261
bk0: 518a 211812i bk1: 516a 211828i bk2: 512a 211733i bk3: 512a 211682i bk4: 512a 212348i bk5: 512a 211946i bk6: 512a 212280i bk7: 512a 211319i bk8: 512a 211843i bk9: 512a 211854i bk10: 512a 212306i bk11: 512a 212614i bk12: 512a 212782i bk13: 512a 212784i bk14: 512a 212954i bk15: 512a 212748i 
dram_util_bins: 0 0 0 0 0 0 0 0 0 0
dram_eff_bins: 0 0 0 0 0 0 0 0 0 0
mrqq: max=16 avg=1.09832
Memory Partition 1: 
Cache L2_bank_002:
MSHR contents

Cache L2_bank_003:
MSHR contents

In Dram Latency Queue (total = 0): 
DRAM[1]: 16 bks, busW=4 BL=8 CL=12, tRRD=2 tCCD=6, tRCD=12 tRAS=28 tRP=12 tRC=40
n_cmd=218610 n_nop=203154 n_act=1202 n_pre=1186 n_req=7614 n_rd=8200 n_write=4868 bw_util=0.1196
n_activity=100820 dram_eff=0.2592
bk0: 516a 212378i bk1: 516a 212017i bk2: 512a 211733i bk3: 512a 212078i bk4: 512a 212195i bk5: 512a 211105i bk6: 512a 212070i bk7: 512a 212162i bk8: 512a 211973i bk9: 512a 211825i bk10: 512a 212086i bk11: 512a 213182i bk12: 512a 212638i bk13: 512a 213282i bk14: 512a 212670i bk15: 512a 212771i 
dram_util_bins: 0 0 0 0 0 0 0 0 0 0
dram_eff_bins: 0 0 0 0 0 0 0 0 0 0
mrqq: max=16 avg=1.06765
Memory Partition 2: 
Cache L2_bank_004:
MSHR contents

Cache L2_bank_005:
MSHR contents

In Dram Latency Queue (total = 0): 
DRAM[2]: 16 bks, busW=4 BL=8 CL=12, tRRD=2 tCCD=6, tRCD=12 tRAS=28 tRP=12 tRC=40
n_cmd=218610 n_nop=202976 n_act=1285 n_pre=1269 n_req=7658 n_rd=8198 n_write=4882 bw_util=0.1197
n_activity=101185 dram_eff=0.2585
bk0: 516a 211592i bk1: 514a 211693i bk2: 512a 212084i bk3: 512a 211753i bk4: 512a 211882i bk5: 512a 212212i bk6: 512a 211522i bk7: 512a 211791i bk8: 512a 212179i bk9: 512a 211677i bk10: 512a 212822i bk11: 512a 212094i bk12: 512a 212766i bk13: 512a 212810i bk14: 512a 212454i bk15: 512a 212779i 
dram_util_bins: 0 0 0 0 0 0 0 0 0 0
dram_eff_bins: 0 0 0 0 0 0 0 0 0 0
mrqq: max=16 avg=1.08923
Memory Partition 3: 
Cache L2_bank_006:
MSHR contents

Cache L2_bank_007:
MSHR contents

In Dram Latency Queue (total = 0): 
DRAM[3]: 16 bks, busW=4 BL=8 CL=12, tRRD=2 tCCD=6, tRCD=12 tRAS=28 tRP=12 tRC=40
n_cmd=218610 n_nop=203052 n_act=1249 n_pre=1233 n_req=7611 n_rd=8196 n_write=4880 bw_util=0.1196
n_activity=101199 dram_eff=0.2584
bk0: 516a 211707i bk1: 512a 212314i bk2: 512a 212055i bk3: 512a 211602i bk4: 512a 211407i bk5: 512a 212040i bk6: 512a 211759i bk7: 512a 212142i bk8: 512a 211830i bk9: 512a 212137i bk10: 512a 212848i bk11: 512a 211845i bk12: 512a 213250i bk13: 512a 212759i bk14: 512a 212572i bk15: 512a 212534i 
dram_util_bins: 0 0 0 0 0 0 0 0 0 0
dram_eff_bins: 0 0 0 0 0 0 0 0 0 0
mrqq: max=16 avg=1.08296
Memory Partition 4: 
Cache L2_bank_008:
MSHR contents

Cache L2_bank_009:
MSHR contents

In Dram Latency Queue (total = 0): 
DRAM[4]: 16 bks, busW=4 BL=8 CL=12, tRRD=2 tCCD=6, tRCD=12 tRAS=28 tRP=12 tRC=40
n_cmd=218610 n_nop=203074 n_act=1254 n_pre=1238 n_req=7634 n_rd=8196 n_write=4848 bw_util=0.1193
n_activity=100588 dram_eff=0.2594
bk0: 516a 211783i bk1: 512a 211957i bk2: 512a 211907i bk3: 512a 211581i bk4: 512a 212019i bk5: 512a 212010i bk6: 512a 212017i bk7: 512a 211394i bk8: 512a 211820i bk9: 512a 211723i bk10: 512a 212435i bk11: 512a 212836i bk12: 512a 212939i bk13: 512a 212897i bk14: 512a 213026i bk15: 512a 212687i 
dram_util_bins: 0 0 0 0 0 0 0 0 0 0
dram_eff_bins: 0 0 0 0 0 0 0 0 0 0
mrqq: max=16 avg=1.08642
Memory Partition 5: 
Cache L2_bank_010:
MSHR contents

Cache L2_bank_011:
MSHR contents

In Dram Latency Queue (total = 0): 
DRAM[5]: 16 bks, busW=4 BL=8 CL=12, tRRD=2 tCCD=6, tRCD=12 tRAS=28 tRP=12 tRC=40
n_cmd=218610 n_nop=203101 n_act=1229 n_pre=1213 n_req=7608 n_rd=8196 n_write=4871 bw_util=0.1195
n_activity=100100 dram_eff=0.2611
bk0: 516a 212369i bk1: 512a 211977i bk2: 512a 211662i bk3: 512a 212411i bk4: 512a 211966i bk5: 512a 211399i bk6: 512a 212040i bk7: 512a 211880i bk8: 512a 212104i bk9: 512a 211839i bk10: 512a 211792i bk11: 512a 212953i bk12: 512a 212781i bk13: 512a 213152i bk14: 512a 212442i bk15: 512a 212720i 
dram_util_bins: 0 0 0 0 0 0 0 0 0 0
dram_eff_bins: 0 0 0 0 0 0 0 0 0 0
mrqq: max=16 avg=1.04762

========= L2 cache stats =========
L2_cache_bank[0]: Access = 10309, Miss = 2051, Miss_rate = 0.199, Pending_hits = 1736, Reservation_fails = 371
L2_cache_bank[1]: Access = 10355, Miss = 2050, Miss_rate = 0.198, Pending_hits = 1849, Reservation_fails = 191
L2_cache_bank[2]: Access = 9201, Miss = 2050, Miss_rate = 0.223, Pending_hits = 1791, Reservation_fails = 191
L2_cache_bank[3]: Access = 9542, Miss = 2050, Miss_rate = 0.215, Pending_hits = 1797, Reservation_fails = 129
L2_cache_bank[4]: Access = 9411, Miss = 2050, Miss_rate = 0.218, Pending_hits = 1839, Reservation_fails = 103
L2_cache_bank[5]: Access = 10568, Miss = 2049, Miss_rate = 0.194, Pending_hits = 1738, Reservation_fails = 110
L2_cache_bank[6]: Access = 9219, Miss = 2050, Miss_rate = 0.222, Pending_hits = 1832, Reservation_fails = 114
L2_cache_bank[7]: Access = 9168, Miss = 2048, Miss_rate = 0.223, Pending_hits = 1775, Reservation_fails = 0
L2_cache_bank[8]: Access = 9909, Miss = 2050, Miss_rate = 0.207, Pending_hits = 1735, Reservation_fails = 171
L2_cache_bank[9]: Access = 9310, Miss = 2048, Miss_rate = 0.220, Pending_hits = 1874, Reservation_fails = 0
L2_cache_bank[10]: Access = 9497, Miss = 2050, Miss_rate = 0.216, Pending_hits = 1800, Reservation_fails = 187
L2_cache_bank[11]: Access = 9213, Miss = 2048, Miss_rate = 0.222, Pending_hits = 1831, Reservation_fails = 0
L2_total_cache_accesses = 115702
L2_total_cache_misses = 24594
L2_total_cache_miss_rate = 0.2126
L2_total_cache_pending_hits = 21597
L2_total_cache_reservation_fails = 1567
L2_total_cache_breakdown:
	L2_cache_stats_breakdown[GLOBAL_ACC_R][HIT] = 54051
	L2_cache_stats_breakdown[GLOBAL_ACC_R][HIT_RESERVED] = 13015
	L2_cache_stats_breakdown[GLOBAL_ACC_R][MISS] = 16384
	L2_cache_stats_breakdown[CONST_ACC_R][HIT] = 11
	L2_cache_stats_breakdown[CONST_ACC_R][HIT_RESERVED] = 3
	L2_cache_stats_breakdown[CONST_ACC_R][MISS] = 1
	L2_cache_stats_breakdown[CONST_ACC_R][RESERVATION_FAIL] = 119
	L2_cache_stats_breakdown[GLOBAL_ACC_W][HIT] = 10414
	L2_cache_stats_breakdown[GLOBAL_ACC_W][HIT_RESERVED] = 8530
	L2_cache_stats_breakdown[GLOBAL_ACC_W][MISS] = 8192
	L2_cache_stats_breakdown[GLOBAL_ACC_W][RESERVATION_FAIL] = 6
	L2_cache_stats_breakdown[INST_ACC_R][HIT] = 5035
	L2_cache_stats_breakdown[INST_ACC_R][HIT_RESERVED] = 49
	L2_cache_stats_breakdown[INST_ACC_R][MISS] = 17
	L2_cache_stats_breakdown[INST_ACC_R][RESERVATION_FAIL] = 1442
L2_cache_data_port_util = 0.104
L2_cache_fill_port_util = 0.038

icnt_total_pkts_mem_to_simt=469936
icnt_total_pkts_simt_to_mem=170486
LD_mem_lat_dist  0 0 0 0 0 0 0 0 0 0 0 0 0 0 0 0 0 0 0 0 0 0 0 0 0 0 0
ST_mem_lat_dist  0 0 0 0 0 0 0 0 0 0 0 0 0 0 0 0 0 0 0 0 0 0 0 0 0 0 0
----------------------------Interconnect-DETAILS--------------------------------
Class 0:
Packet latency average = 14.2114
	minimum = 6
	maximum = 255
Network latency average = 12.0581
	minimum = 6
	maximum = 255
Slowest packet = 11254
Flit latency average = 10.7405
	minimum = 6
	maximum = 255
Slowest flit = 31188
Fragmentation average = 0
	minimum = 0
	maximum = 0
Injected packet rate average = 0.0392046
	minimum = 0.0334889 (at node 3)
	maximum = 0.0483418 (at node 20)
Accepted packet rate average = 0.0392046
	minimum = 0.0334889 (at node 3)
	maximum = 0.0483418 (at node 20)
Injected flit rate average = 0.108501
	minimum = 0.0503957 (at node 3)
	maximum = 0.201144 (at node 20)
Accepted flit rate average= 0.108501
	minimum = 0.0628654 (at node 24)
	maximum = 0.150245 (at node 14)
Injected packet length average = 2.76755
Accepted packet length average = 2.76755
Total in-flight flits = 0 (0 measured)
====== Overall Traffic Statistics ======
====== Traffic class 0 ======
Packet latency average = 14.2114 (1 samples)
	minimum = 6 (1 samples)
	maximum = 255 (1 samples)
Network latency average = 12.0581 (1 samples)
	minimum = 6 (1 samples)
	maximum = 255 (1 samples)
Flit latency average = 10.7405 (1 samples)
	minimum = 6 (1 samples)
	maximum = 255 (1 samples)
Fragmentation average = 0 (1 samples)
	minimum = 0 (1 samples)
	maximum = 0 (1 samples)
Injected packet rate average = 0.0392046 (1 samples)
	minimum = 0.0334889 (1 samples)
	maximum = 0.0483418 (1 samples)
Accepted packet rate average = 0.0392046 (1 samples)
	minimum = 0.0334889 (1 samples)
	maximum = 0.0483418 (1 samples)
Injected flit rate average = 0.108501 (1 samples)
	minimum = 0.0503957 (1 samples)
	maximum = 0.201144 (1 samples)
Accepted flit rate average = 0.108501 (1 samples)
	minimum = 0.0628654 (1 samples)
	maximum = 0.150245 (1 samples)
Injected packet size average = 2.76755 (1 samples)
Accepted packet size average = 2.76755 (1 samples)
Hops average = 1 (1 samples)
----------------------------END-of-Interconnect-DETAILS-------------------------


gpgpu_simulation_time = 0 days, 0 hrs, 18 min, 57 sec (1137 sec)
gpgpu_simulation_rate = 124988 (inst/sec)
gpgpu_simulation_rate = 192 (cycle/sec)
Ending simulation
