

        *** GPGPU-Sim Simulator Version 3.2.2  [build 0] ***


GPGPU-Sim PTX: simulation mode 0 (can change with PTX_SIM_MODE_FUNC environment variable:
               1=functional simulation only, 0=detailed performance simulator)
GPGPU-Sim: Configuration options:

-network_mode                           1 # Interconnection network mode
-inter_config_file   config_fermi_islip.icnt # Interconnection network config file
-gpgpu_ptx_use_cuobjdump                    1 # Use cuobjdump to extract ptx and sass from binaries
-gpgpu_experimental_lib_support                    0 # Try to extract code from cuda libraries [Broken because of unknown cudaGetExportTable]
-gpgpu_ptx_convert_to_ptxplus                    0 # Convert SASS (native ISA) to ptxplus and run ptxplus
-gpgpu_ptx_force_max_capability                   20 # Force maximum compute capability
-gpgpu_ptx_inst_debug_to_file                    0 # Dump executed instructions' debug information to file
-gpgpu_ptx_inst_debug_file       inst_debug.txt # Executed instructions' debug output file
-gpgpu_ptx_inst_debug_thread_uid                    1 # Thread UID for executed instructions' debug output
-gpgpu_simd_model                       1 # 1 = post-dominator
-gpgpu_shader_core_pipeline              1536:32 # shader core pipeline config, i.e., {<nthread>:<warpsize>}
-gpgpu_tex_cache:l1  4:128:24,L:R:m:N:L,F:128:4,128:2 # per-shader L1 texture cache  (READ-ONLY) config  {<nsets>:<bsize>:<assoc>,<rep>:<wr>:<alloc>:<wr_alloc>,<mshr>:<N>:<merge>,<mq>:<rf>}
-gpgpu_const_cache:l1 64:64:2,L:R:f:N:L,A:2:32,4 # per-shader L1 constant memory cache  (READ-ONLY) config  {<nsets>:<bsize>:<assoc>,<rep>:<wr>:<alloc>:<wr_alloc>,<mshr>:<N>:<merge>,<mq>} 
-gpgpu_cache:il1     4:128:4,L:R:f:N:L,A:2:32,4 # shader L1 instruction cache config  {<nsets>:<bsize>:<assoc>,<rep>:<wr>:<alloc>:<wr_alloc>,<mshr>:<N>:<merge>,<mq>} 
-gpgpu_cache:dl1     32:128:4,L:L:m:N:H,A:32:8,8 # per-shader L1 data cache config  {<nsets>:<bsize>:<assoc>,<rep>:<wr>:<alloc>:<wr_alloc>,<mshr>:<N>:<merge>,<mq> | none}
-gpgpu_cache:dl1PrefL1                 none # per-shader L1 data cache config  {<nsets>:<bsize>:<assoc>,<rep>:<wr>:<alloc>:<wr_alloc>,<mshr>:<N>:<merge>,<mq> | none}
-gpgpu_cache:dl1PreShared                 none # per-shader L1 data cache config  {<nsets>:<bsize>:<assoc>,<rep>:<wr>:<alloc>:<wr_alloc>,<mshr>:<N>:<merge>,<mq> | none}
-gmem_skip_L1D                          0 # global memory access skip L1D cache (implements -Xptxas -dlcm=cg, default=no skip)
-gpgpu_perfect_mem                      0 # enable perfect memory mode (no cache miss)
-n_regfile_gating_group                    4 # group of lanes that should be read/written together)
-gpgpu_clock_gated_reg_file                    0 # enable clock gated reg file for power calculations
-gpgpu_clock_gated_lanes                    0 # enable clock gated lanes for power calculations
-gpgpu_shader_registers                32768 # Number of registers per shader core. Limits number of concurrent CTAs. (default 8192)
-gpgpu_shader_cta                       8 # Maximum number of concurrent CTAs in shader (default 8)
-gpgpu_num_cta_barriers                   16 # Maximum number of named barriers per CTA (default 16)
-gpgpu_n_clusters                      15 # number of processing clusters
-gpgpu_n_cores_per_cluster                    1 # number of simd cores per cluster
-gpgpu_n_cluster_ejection_buffer_size                    8 # number of packets in ejection buffer
-gpgpu_n_ldst_response_buffer_size                    2 # number of response packets in ld/st unit ejection buffer
-gpgpu_shmem_size                   16384 # Size of shared memory per shader core (default 16kB)
-gpgpu_shmem_size                   49152 # Size of shared memory per shader core (default 16kB)
-gpgpu_shmem_size_PrefL1                16384 # Size of shared memory per shader core (default 16kB)
-gpgpu_shmem_size_PrefShared                16384 # Size of shared memory per shader core (default 16kB)
-gpgpu_shmem_num_banks                   32 # Number of banks in the shared memory in each shader core (default 16)
-gpgpu_shmem_limited_broadcast                    0 # Limit shared memory to do one broadcast per cycle (default on)
-gpgpu_shmem_warp_parts                    1 # Number of portions a warp is divided into for shared memory bank conflict check 
-gpgpu_warpdistro_shader                   -1 # Specify which shader core to collect the warp size distribution from
-gpgpu_warp_issue_shader                    0 # Specify which shader core to collect the warp issue distribution from
-gpgpu_local_mem_map                    1 # Mapping from local memory space address to simulated GPU physical address space (default = enabled)
-gpgpu_num_reg_banks                   16 # Number of register banks (default = 8)
-gpgpu_reg_bank_use_warp_id                    0 # Use warp ID in mapping registers to banks (default = off)
-gpgpu_operand_collector_num_units_sp                    6 # number of collector units (default = 4)
-gpgpu_operand_collector_num_units_sfu                    8 # number of collector units (default = 4)
-gpgpu_operand_collector_num_units_mem                    2 # number of collector units (default = 2)
-gpgpu_operand_collector_num_units_gen                    0 # number of collector units (default = 0)
-gpgpu_operand_collector_num_in_ports_sp                    2 # number of collector unit in ports (default = 1)
-gpgpu_operand_collector_num_in_ports_sfu                    1 # number of collector unit in ports (default = 1)
-gpgpu_operand_collector_num_in_ports_mem                    1 # number of collector unit in ports (default = 1)
-gpgpu_operand_collector_num_in_ports_gen                    0 # number of collector unit in ports (default = 0)
-gpgpu_operand_collector_num_out_ports_sp                    2 # number of collector unit in ports (default = 1)
-gpgpu_operand_collector_num_out_ports_sfu                    1 # number of collector unit in ports (default = 1)
-gpgpu_operand_collector_num_out_ports_mem                    1 # number of collector unit in ports (default = 1)
-gpgpu_operand_collector_num_out_ports_gen                    0 # number of collector unit in ports (default = 0)
-gpgpu_coalesce_arch                   13 # Coalescing arch (default = 13, anything else is off for now)
-gpgpu_num_sched_per_core                    2 # Number of warp schedulers per core
-gpgpu_max_insn_issue_per_warp                    1 # Max number of instructions that can be issued per warp in one cycle by scheduler
-gpgpu_simt_core_sim_order                    1 # Select the simulation order of cores in a cluster (0=Fix, 1=Round-Robin)
-gpgpu_pipeline_widths        2,1,1,2,1,1,2 # Pipeline widths ID_OC_SP,ID_OC_SFU,ID_OC_MEM,OC_EX_SP,OC_EX_SFU,OC_EX_MEM,EX_WB
-gpgpu_num_sp_units                     2 # Number of SP units (default=1)
-gpgpu_num_sfu_units                    1 # Number of SF units (default=1)
-gpgpu_num_mem_units                    1 # Number if ldst units (default=1) WARNING: not hooked up to anything
-gpgpu_scheduler                      gto # Scheduler configuration: < lrr | gto | two_level_active > If two_level_active:<num_active_warps>:<inner_prioritization>:<outer_prioritization>For complete list of prioritization values see shader.h enum scheduler_prioritization_typeDefault: gto
-gpgpu_dram_scheduler                    1 # 0 = fifo, 1 = FR-FCFS (defaul)
-gpgpu_dram_partition_queues              8:8:8:8 # i2$:$2d:d2$:$2i
-l2_ideal                               0 # Use a ideal L2 cache that always hit
-gpgpu_cache:dl2     64:128:8,L:B:m:W:L,A:32:4,4:0,32 # unified banked L2 data cache config  {<nsets>:<bsize>:<assoc>,<rep>:<wr>:<alloc>:<wr_alloc>,<mshr>:<N>:<merge>,<mq>}
-gpgpu_cache:dl2_texture_only                    0 # L2 cache used for texture only
-gpgpu_n_mem                            6 # number of memory modules (e.g. memory controllers) in gpu
-gpgpu_n_sub_partition_per_mchannel                    2 # number of memory subpartition in each memory module
-gpgpu_n_mem_per_ctrlr                    2 # number of memory chips per memory controller
-gpgpu_memlatency_stat                   14 # track and display latency statistics 0x2 enables MC, 0x4 enables queue logs
-gpgpu_frfcfs_dram_sched_queue_size                   16 # 0 = unlimited (default); # entries per chip
-gpgpu_dram_return_queue_size                   84 # 0 = unlimited (default); # entries per chip
-gpgpu_dram_buswidth                    4 # default = 4 bytes (8 bytes per cycle at DDR)
-gpgpu_dram_burst_length                    8 # Burst length of each DRAM request (default = 4 data bus cycle)
-dram_data_command_freq_ratio                    4 # Frequency ratio between DRAM data bus and command bus (default = 2 times, i.e. DDR)
-gpgpu_dram_timing_opt nbk=16:CCD=2:RRD=6:RCD=12:RAS=28:RP=12:RC=40: CL=12:WL=4:CDLR=5:WR=12:nbkgrp=4:CCDL=3:RTPL=2 # DRAM timing parameters = {nbk:tCCD:tRRD:tRCD:tRAS:tRP:tRC:CL:WL:tCDLR:tWR:nbkgrp:tCCDL:tRTPL}
-rop_latency                          120 # ROP queue latency (default 85)
-dram_latency                         100 # DRAM latency (default 30)
-gpgpu_mem_addr_mapping dramid@8;00000000.00000000.00000000.00000000.0000RRRR.RRRRRRRR.BBBCCCCB.CCSSSSSS # mapping memory address to dram model {dramid@<start bit>;<memory address map>}
-gpgpu_mem_addr_test                    0 # run sweep test to check address mapping for aliased address
-gpgpu_mem_address_mask                    1 # 0 = old addressing mask, 1 = new addressing mask, 2 = new add. mask + flipped bank sel and chip sel bits
-gpuwattch_xml_file  gpuwattch_gtx480.xml # GPUWattch XML file
-power_simulation_enabled                    1 # Turn on power simulator (1=On, 0=Off)
-power_per_cycle_dump                    0 # Dump detailed power output each cycle
-power_trace_enabled                    0 # produce a file for the power trace (1=On, 0=Off)
-power_trace_zlevel                     6 # Compression level of the power trace output log (0=no comp, 9=highest)
-steady_power_levels_enabled                    0 # produce a file for the steady power levels (1=On, 0=Off)
-steady_state_definition                  8:4 # allowed deviation:number of samples
-gpgpu_max_cycle                        0 # terminates gpu simulation early (0 = no limit)
-gpgpu_max_insn                         0 # terminates gpu simulation early (0 = no limit)
-gpgpu_max_cta                          0 # terminates gpu simulation early (0 = no limit)
-gpgpu_runtime_stat                   500 # display runtime statistics such as dram utilization {<freq>:<flag>}
-liveness_message_freq                    1 # Minimum number of seconds between simulation liveness messages (0 = always print)
-gpgpu_flush_l1_cache                    0 # Flush L1 cache at the end of each kernel call
-gpgpu_flush_l2_cache                    0 # Flush L2 cache at the end of each kernel call
-gpgpu_deadlock_detect                    1 # Stop the simulation at deadlock (1=on (default), 0=off)
-gpgpu_ptx_instruction_classification                    0 # if enabled will classify ptx instruction types per kernel (Max 255 kernels now)
-gpgpu_ptx_sim_mode                     0 # Select between Performance (default) or Functional simulation (1)
-gpgpu_clock_domains 700.0:700.0:700.0:700.0 # Clock Domain Frequencies in MhZ {<Core Clock>:<ICNT Clock>:<L2 Clock>:<DRAM Clock>}
-gpgpu_max_concurrent_kernel                    8 # maximum kernels that can run concurrently on GPU
-gpgpu_cflog_interval                    0 # Interval between each snapshot in control flow logger
-visualizer_enabled                     0 # Turn on visualizer output (1=On, 0=Off)
-visualizer_outputfile                 NULL # Specifies the output log file for visualizer
-visualizer_zlevel                      6 # Compression level of the visualizer output log (0=no comp, 9=highest)
-trace_enabled                          0 # Turn on traces
-trace_components                    none # comma seperated list of traces to enable. Complete list found in trace_streams.tup. Default none
-trace_sampling_core                    0 # The core which is printed using CORE_DPRINTF. Default 0
-trace_sampling_memory_partition                   -1 # The memory partition which is printed using MEMPART_DPRINTF. Default -1 (i.e. all)
-enable_ptx_file_line_stats                    1 # Turn on PTX source line statistic profiling. (1 = On)
-ptx_line_stats_filename gpgpu_inst_stats.txt # Output file for PTX source line statistics.
-save_embedded_ptx                      0 # saves ptx files embedded in binary as <n>.ptx
-keep                                   0 # keep intermediate files created by GPGPU-Sim when interfacing with external programs
-gpgpu_ptx_save_converted_ptxplus                    0 # Saved converted ptxplus to a file
-ptx_opcode_latency_int         4,13,4,5,145 # Opcode latencies for integers <ADD,MAX,MUL,MAD,DIV>Default 1,1,19,25,145
-ptx_opcode_latency_fp          4,13,4,5,39 # Opcode latencies for single precision floating points <ADD,MAX,MUL,MAD,DIV>Default 1,1,1,1,30
-ptx_opcode_latency_dp         8,19,8,8,330 # Opcode latencies for double precision floating points <ADD,MAX,MUL,MAD,DIV>Default 8,8,8,8,335
-ptx_opcode_initiation_int            1,2,2,1,8 # Opcode initiation intervals for integers <ADD,MAX,MUL,MAD,DIV>Default 1,1,4,4,32
-ptx_opcode_initiation_fp            1,2,1,1,4 # Opcode initiation intervals for single precision floating points <ADD,MAX,MUL,MAD,DIV>Default 1,1,1,1,5
-ptx_opcode_initiation_dp         8,16,8,8,130 # Opcode initiation intervals for double precision floating points <ADD,MAX,MUL,MAD,DIV>Default 8,8,8,8,130
DRAM Timing Options:
nbk                                    16 # number of banks
CCD                                     2 # column to column delay
RRD                                     6 # minimal delay between activation of rows in different banks
RCD                                    12 # row to column delay
RAS                                    28 # time needed to activate row
RP                                     12 # time needed to precharge (deactivate) row
RC                                     40 # row cycle time
CDLR                                    5 # switching from write to read (changes tWTR)
WR                                     12 # last data-in to row precharge
CL                                     12 # CAS latency
WL                                      4 # Write latency
nbkgrp                                  4 # number of bank groups
CCDL                                    3 # column to column delay between accesses to different bank groups
RTPL                                    2 # read to precharge delay between accesses to different bank groups
Total number of memory sub partition = 12
addr_dec_mask[CHIP]  = 0000000000000000 	high:64 low:0
addr_dec_mask[BK]    = 000000000000e100 	high:16 low:8
addr_dec_mask[ROW]   = 000000000fff0000 	high:28 low:16
addr_dec_mask[COL]   = 0000000000001eff 	high:13 low:0
addr_dec_mask[BURST] = 000000000000003f 	high:6 low:0
sub_partition_id_mask = 0000000000000100
GPGPU-Sim uArch: clock freqs: 700000000.000000:700000000.000000:700000000.000000:700000000.000000
GPGPU-Sim uArch: clock periods: 0.00000000142857142857:0.00000000142857142857:0.00000000142857142857:0.00000000142857142857
*** Initializing Memory Statistics ***
GPGPU-Sim uArch: interconnect node map (shaderID+MemID to icntID)
GPGPU-Sim uArch: Memory nodes ID start from index: 15
GPGPU-Sim uArch:    0   1   2   3   4
GPGPU-Sim uArch:    5   6   7   8   9
GPGPU-Sim uArch:   10  11  12  13  14
GPGPU-Sim uArch:   15  16  17  18  19
GPGPU-Sim uArch:   20  21  22  23  24
GPGPU-Sim uArch:   25  26
GPGPU-Sim uArch: interconnect node reverse map (icntID to shaderID+MemID)
GPGPU-Sim uArch: Memory nodes start from ID: 15
GPGPU-Sim uArch:    0   1   2   3   4
GPGPU-Sim uArch:    5   6   7   8   9
GPGPU-Sim uArch:   10  11  12  13  14
GPGPU-Sim uArch:   15  16  17  18  19
GPGPU-Sim uArch:   20  21  22  23  24
GPGPU-Sim uArch:   25  26
8e21ce17919ae2caa011e67f4f8a5b1e  /home/gpgpu-sim/Documents/Dynamic_GPU_Cache_Bypass_Project/benchmarks/test/lud-rodinia-3.1
GPGPU-Sim uArch: performance model initialization complete.
GPGPU-Sim PTX: __cudaRegisterFatBinary, fat_cubin_handle = 1, filename=lud.cu
self exe links to: /home/gpgpu-sim/Documents/Dynamic_GPU_Cache_Bypass_Project/benchmarks/test/lud-rodinia-3.1
Running md5sum using "md5sum /home/gpgpu-sim/Documents/Dynamic_GPU_Cache_Bypass_Project/benchmarks/test/lud-rodinia-3.1 "
Running cuobjdump using "$CUDA_INSTALL_PATH/bin/cuobjdump -ptx -elf -sass /home/gpgpu-sim/Documents/Dynamic_GPU_Cache_Bypass_Project/benchmarks/test/lud-rodinia-3.1 > _cuobjdump_complete_output_5dC0ue"
Parsing file _cuobjdump_complete_output_5dC0ue
######### cuobjdump parser ########
## Adding new section ELF
Adding arch: sm_30
Adding identifier: lud.cu
## Adding new section PTX
Adding ptx filename: _cuobjdump_1.ptx
Adding arch: sm_30
Adding identifier: lud.cu
## Adding new section ELF
Adding arch: sm_13
Adding identifier: lud.cu
## Adding new section PTX
Adding ptx filename: _cuobjdump_2.ptx
Adding arch: sm_13
Adding identifier: lud.cu
## Adding new section ELF
Adding arch: sm_20
Adding identifier: lud.cu
## Adding new section PTX
Adding ptx filename: _cuobjdump_3.ptx
Adding arch: sm_20
Adding identifier: lud.cu
## Adding new section ELF
Adding arch: sm_10
Adding identifier: lud.cu
## Adding new section PTX
Adding ptx filename: _cuobjdump_4.ptx
Adding arch: sm_10
Adding identifier: lud.cu
## Adding new section ELF
Adding arch: sm_30
Adding identifier: lud_kernel.cu
## Adding new section PTX
Adding ptx filename: _cuobjdump_5.ptx
Adding arch: sm_30
Adding identifier: lud_kernel.cu
## Adding new section ELF
Adding arch: sm_13
Adding identifier: lud_kernel.cu
## Adding new section PTX
Adding ptx filename: _cuobjdump_6.ptx
Adding arch: sm_13
Adding identifier: lud_kernel.cu
## Adding new section ELF
Adding arch: sm_20
Adding identifier: lud_kernel.cu
## Adding new section PTX
Adding ptx filename: _cuobjdump_7.ptx
Adding arch: sm_20
Adding identifier: lud_kernel.cu
## Adding new section ELF
Adding arch: sm_10
Adding identifier: lud_kernel.cu
## Adding new section PTX
Adding ptx filename: _cuobjdump_8.ptx
Adding arch: sm_10
Adding identifier: lud_kernel.cu
Done parsing!!!
GPGPU-Sim PTX: __cudaRegisterFatBinary, fat_cubin_handle = 2, filename=lud_kernel.cu
GPGPU-Sim PTX: __cudaRegisterFunction _Z12lud_internalPfii : hostFun 0x0x401c40, fat_cubin_handle = 2
GPGPU-Sim PTX: allocating shared region for "__cuda_local_var_18130_33_non_const_shadow" from 0x0 to 0x400 (shared memory space)
GPGPU-Sim PTX: instruction assembly for function '_Z12lud_diagonalPfii'...   done.
GPGPU-Sim PTX: finding reconvergence points for '_Z12lud_diagonalPfii'...
GPGPU-Sim PTX: Finding dominators for '_Z12lud_diagonalPfii'...
GPGPU-Sim PTX: Finding immediate dominators for '_Z12lud_diagonalPfii'...
GPGPU-Sim PTX: Finding postdominators for '_Z12lud_diagonalPfii'...
GPGPU-Sim PTX: Finding immediate postdominators for '_Z12lud_diagonalPfii'...
GPGPU-Sim PTX: pre-decoding instructions for '_Z12lud_diagonalPfii'...
GPGPU-Sim PTX: reconvergence points for _Z12lud_diagonalPfii...
GPGPU-Sim PTX:  1 (potential) branch divergence @  PC=0x370 (_2.ptx:170) @%p2 bra BB0_6;
GPGPU-Sim PTX:    immediate post dominator      @  PC=0x468 (_2.ptx:219) bar.sync 0;
GPGPU-Sim PTX:  2 (potential) branch divergence @  PC=0x3a8 (_2.ptx:179) @%p3 bra BB0_5;
GPGPU-Sim PTX:    immediate post dominator      @  PC=0x430 (_2.ptx:206) ld.shared.f32 %f26, [%rl9];
GPGPU-Sim PTX:  3 (potential) branch divergence @  PC=0x428 (_2.ptx:202) @%p4 bra BB0_4;
GPGPU-Sim PTX:    immediate post dominator      @  PC=0x430 (_2.ptx:206) ld.shared.f32 %f26, [%rl9];
GPGPU-Sim PTX:  4 (potential) branch divergence @  PC=0x470 (_2.ptx:221) @!%p1 bra BB0_9;
GPGPU-Sim PTX:    immediate post dominator      @  PC=0x530 (_2.ptx:255) bar.sync 0;
GPGPU-Sim PTX:  5 (potential) branch divergence @  PC=0x528 (_2.ptx:251) @%p5 bra BB0_8;
GPGPU-Sim PTX:    immediate post dominator      @  PC=0x530 (_2.ptx:255) bar.sync 0;
GPGPU-Sim PTX:  6 (potential) branch divergence @  PC=0x570 (_2.ptx:265) @%p6 bra BB0_1;
GPGPU-Sim PTX:    immediate post dominator      @  PC=0x578 (_2.ptx:267) ld.param.u32 %r131, [_Z12lud_diagonalPfii_param_2];
GPGPU-Sim PTX: ... end of reconvergence points for _Z12lud_diagonalPfii
GPGPU-Sim PTX: ... done pre-decoding instructions for '_Z12lud_diagonalPfii'.
GPGPU-Sim PTX: allocating shared region for "__cuda_local_var_18171_33_non_const_dia" from 0x0 to 0x400 (shared memory space)
GPGPU-Sim PTX: allocating shared region for "__cuda_local_var_18172_33_non_const_peri_row" from 0x400 to 0x800 (shared memory space)
GPGPU-Sim PTX: allocating shared region for "__cuda_local_var_18173_33_non_const_peri_col" from 0x800 to 0xc00 (shared memory space)
GPGPU-Sim PTX: instruction assembly for function '_Z13lud_perimeterPfii'...   done.
GPGPU-Sim PTX: finding reconvergence points for '_Z13lud_perimeterPfii'...
GPGPU-Sim PTX: Finding dominators for '_Z13lud_perimeterPfii'...
GPGPU-Sim PTX: Finding immediate dominators for '_Z13lud_perimeterPfii'...
GPGPU-Sim PTX: Finding postdominators for '_Z13lud_perimeterPfii'...
GPGPU-Sim PTX: Finding immediate postdominators for '_Z13lud_perimeterPfii'...
GPGPU-Sim PTX: pre-decoding instructions for '_Z13lud_perimeterPfii'...
GPGPU-Sim PTX: reconvergence points for _Z13lud_perimeterPfii...
GPGPU-Sim PTX:  1 (potential) branch divergence @  PC=0x8b0 (_2.ptx:409) @%p1 bra BB1_2;
GPGPU-Sim PTX:    immediate post dominator      @  PC=0xfd0 (_2.ptx:695) bar.sync 0;
GPGPU-Sim PTX:  2 (potential) branch divergence @  PC=0xc20 (_2.ptx:546) bra.uni BB1_3;
GPGPU-Sim PTX:    immediate post dominator      @  PC=0xfd0 (_2.ptx:695) bar.sync 0;
GPGPU-Sim PTX:  3 (potential) branch divergence @  PC=0xfd8 (_2.ptx:697) @%p1 bra BB1_9;
GPGPU-Sim PTX:    immediate post dominator      @  PC=0x1270 (_2.ptx:816) bar.sync 0;
GPGPU-Sim PTX:  4 (potential) branch divergence @  PC=0x1048 (_2.ptx:716) @%p2 bra BB1_8;
GPGPU-Sim PTX:    immediate post dominator      @  PC=0x10d0 (_2.ptx:742) shl.b64 %rl136, %rl213, 6;
GPGPU-Sim PTX:  5 (potential) branch divergence @  PC=0x10c8 (_2.ptx:739) @%p3 bra BB1_7;
GPGPU-Sim PTX:    immediate post dominator      @  PC=0x10d0 (_2.ptx:742) shl.b64 %rl136, %rl213, 6;
GPGPU-Sim PTX:  6 (potential) branch divergence @  PC=0x1138 (_2.ptx:759) @%p4 bra BB1_13;
GPGPU-Sim PTX:    immediate post dominator      @  PC=0x1270 (_2.ptx:816) bar.sync 0;
GPGPU-Sim PTX:  7 (potential) branch divergence @  PC=0x1140 (_2.ptx:760) bra.uni BB1_5;
GPGPU-Sim PTX:    immediate post dominator      @  PC=0x1008 (_2.ptx:707) mov.u64 %rl214, %rl216;
GPGPU-Sim PTX:  8 (potential) branch divergence @  PC=0x1248 (_2.ptx:805) @%p5 bra BB1_11;
GPGPU-Sim PTX:    immediate post dominator      @  PC=0x1250 (_2.ptx:807) add.s64 %rl30, %rl21, 64;
GPGPU-Sim PTX:  9 (potential) branch divergence @  PC=0x1268 (_2.ptx:812) @%p6 bra BB1_10;
GPGPU-Sim PTX:    immediate post dominator      @  PC=0x1270 (_2.ptx:816) bar.sync 0;
GPGPU-Sim PTX: 10 (potential) branch divergence @  PC=0x1278 (_2.ptx:818) @%p1 bra BB1_15;
GPGPU-Sim PTX:    immediate post dominator      @ 
GPGPU-Sim PTX: ... end of reconvergence points for _Z13lud_perimeterPfii
GPGPU-Sim PTX: ... done pre-decoding instructions for '_Z13lud_perimeterPfii'.
GPGPU-Sim PTX: allocating shared region for "__cuda_local_var_18249_33_non_const_peri_row" from 0x0 to 0x400 (shared memory space)
GPGPU-Sim PTX: allocating shared region for "__cuda_local_var_18250_33_non_const_peri_col" from 0x400 to 0x800 (shared memory space)
GPGPU-Sim PTX: instruction assembly for function '_Z12lud_internalPfii'...   done.
GPGPU-Sim PTX: finding reconvergence points for '_Z12lud_internalPfii'...
GPGPU-Sim PTX: Finding dominators for '_Z12lud_internalPfii'...
GPGPU-Sim PTX: Finding immediate dominators for '_Z12lud_internalPfii'...
GPGPU-Sim PTX: Finding postdominators for '_Z12lud_internalPfii'...
GPGPU-Sim PTX: Finding immediate postdominators for '_Z12lud_internalPfii'...
GPGPU-Sim PTX: pre-decoding instructions for '_Z12lud_internalPfii'...
GPGPU-Sim PTX: reconvergence points for _Z12lud_internalPfii...
GPGPU-Sim PTX: ... end of reconvergence points for _Z12lud_internalPfii
GPGPU-Sim PTX: ... done pre-decoding instructions for '_Z12lud_internalPfii'.
GPGPU-Sim PTX: finished parsing EMBEDDED .ptx file _2.ptx
Adding _cuobjdump_7.ptx with cubin handle 2
GPGPU-Sim PTX: extracting embedded .ptx to temporary file "_ptx_Nt5PVz"
Running: cat _ptx_Nt5PVz | sed 's/.version 1.5/.version 1.4/' | sed 's/, texmode_independent//' | sed 's/\(\.extern \.const\[1\] .b8 \w\+\)\[\]/\1\[1\]/' | sed 's/const\[.\]/const\[0\]/g' > _ptx2_9TvJmV
GPGPU-Sim PTX: generating ptxinfo using "$CUDA_INSTALL_PATH/bin/ptxas --gpu-name=sm_20 -v _ptx2_9TvJmV --output-file  /dev/null 2> _ptx_Nt5PVzinfo"
GPGPU-Sim PTX: Kernel '_Z13lud_perimeterPfii' : regs=46, lmem=0, smem=3072, cmem=52
GPGPU-Sim PTX: Kernel '_Z12lud_internalPfii' : regs=15, lmem=0, smem=2048, cmem=48
GPGPU-Sim PTX: Kernel '_Z12lud_diagonalPfii' : regs=22, lmem=0, smem=1024, cmem=48
GPGPU-Sim PTX: removing ptxinfo using "rm -f _ptx_Nt5PVz _ptx2_9TvJmV _ptx_Nt5PVzinfo"
GPGPU-Sim PTX: loading globals with explicit initializers... 
GPGPU-Sim PTX: finished loading globals (0 bytes total).
GPGPU-Sim PTX: loading constants with explicit initializers...  done.
GPGPU-Sim PTX: __cudaRegisterFunction _Z13lud_perimeterPfii : hostFun 0x0x401cc0, fat_cubin_handle = 2
GPGPU-Sim PTX: __cudaRegisterFunction _Z12lud_diagonalPfii : hostFun 0x0x401d40, fat_cubin_handle = 2
WG size of kernel = 16 X 16
Generate input matrix internally, size =256
Creating matrix internally size=256
Before LUD

GPGPU-Sim PTX: cudaLaunch for 0x0x401d40 (mode=performance simulation) on stream 0
GPGPU-Sim PTX: pushing kernel '_Z12lud_diagonalPfii' to stream 0, gridDim= (1,1,1) blockDim = (16,1,1) 
kernel '_Z12lud_diagonalPfii' transfer to GPU hardware scheduler
GPGPU-Sim uArch: Shader 1 bind to kernel 1 '_Z12lud_diagonalPfii'
GPGPU-Sim uArch: CTA/core = 8, limited by: cta_limit
GPGPU-Sim uArch: core:  1, cta: 0 initialized @(1,0)
GPGPU-Sim uArch: cycles simulated: 500  inst.: 0 (ipc= 0.0) sim_rate=0 (inst/sec) elapsed = 0:0:00:01 / Wed Jan 30 01:33:28 2019
GPGPU-Sim uArch: cycles simulated: 3500  inst.: 768 (ipc= 0.2) sim_rate=384 (inst/sec) elapsed = 0:0:00:02 / Wed Jan 30 01:33:29 2019
GPGPU-Sim uArch: cycles simulated: 7500  inst.: 1866 (ipc= 0.2) sim_rate=622 (inst/sec) elapsed = 0:0:00:03 / Wed Jan 30 01:33:30 2019
GPGPU-Sim uArch: cycles simulated: 11500  inst.: 9838 (ipc= 0.9) sim_rate=2459 (inst/sec) elapsed = 0:0:00:04 / Wed Jan 30 01:33:31 2019
GPGPU-Sim uArch: cycles simulated: 15500  inst.: 16860 (ipc= 1.1) sim_rate=3372 (inst/sec) elapsed = 0:0:00:05 / Wed Jan 30 01:33:32 2019
GPGPU-Sim uArch: cycles simulated: 19500  inst.: 21250 (ipc= 1.1) sim_rate=3541 (inst/sec) elapsed = 0:0:00:06 / Wed Jan 30 01:33:33 2019
GPGPU-Sim uArch: cycles simulated: 23500  inst.: 24111 (ipc= 1.0) sim_rate=3444 (inst/sec) elapsed = 0:0:00:07 / Wed Jan 30 01:33:34 2019
GPGPU-Sim uArch: Shader 1 finished CTA #0 (27451,0), 0 CTAs running
GPGPU-Sim uArch: Shader 1 empty (release kernel 1 '_Z12lud_diagonalPfii').
GPGPU-Sim uArch: GPU detected kernel '_Z12lud_diagonalPfii' finished on shader 1.
kernel_name = _Z12lud_diagonalPfii 
kernel_launch_uid = 1 
gpu_sim_cycle = 27452
gpu_sim_insn = 26018
gpu_ipc =       0.9478
gpu_tot_sim_cycle = 27452
gpu_tot_sim_insn = 26018
gpu_tot_ipc =       0.9478
gpu_tot_issued_cta = 0
gpu_stall_dramfull = 0
gpu_stall_icnt2sh    = 0
gpu_total_sim_rate=3252

========= Core cache stats =========
L1I_cache:
	L1I_total_cache_accesses = 2046
	L1I_total_cache_misses = 17
	L1I_total_cache_miss_rate = 0.0083
	L1I_total_cache_pending_hits = 0
	L1I_total_cache_reservation_fails = 0
L1D_cache:
	L1D_cache_core[0]: Access = 0, Miss = 0, Miss_rate = -nan, Pending_hits = 0, Reservation_fails = 0
	L1D_cache_core[1]: Access = 0, Miss = 0, Miss_rate = -nan, Pending_hits = 0, Reservation_fails = 0
	L1D_cache_core[2]: Access = 0, Miss = 0, Miss_rate = -nan, Pending_hits = 0, Reservation_fails = 0
	L1D_cache_core[3]: Access = 0, Miss = 0, Miss_rate = -nan, Pending_hits = 0, Reservation_fails = 0
	L1D_cache_core[4]: Access = 0, Miss = 0, Miss_rate = -nan, Pending_hits = 0, Reservation_fails = 0
	L1D_cache_core[5]: Access = 0, Miss = 0, Miss_rate = -nan, Pending_hits = 0, Reservation_fails = 0
	L1D_cache_core[6]: Access = 0, Miss = 0, Miss_rate = -nan, Pending_hits = 0, Reservation_fails = 0
	L1D_cache_core[7]: Access = 0, Miss = 0, Miss_rate = -nan, Pending_hits = 0, Reservation_fails = 0
	L1D_cache_core[8]: Access = 0, Miss = 0, Miss_rate = -nan, Pending_hits = 0, Reservation_fails = 0
	L1D_cache_core[9]: Access = 0, Miss = 0, Miss_rate = -nan, Pending_hits = 0, Reservation_fails = 0
	L1D_cache_core[10]: Access = 0, Miss = 0, Miss_rate = -nan, Pending_hits = 0, Reservation_fails = 0
	L1D_cache_core[11]: Access = 0, Miss = 0, Miss_rate = -nan, Pending_hits = 0, Reservation_fails = 0
	L1D_cache_core[12]: Access = 0, Miss = 0, Miss_rate = -nan, Pending_hits = 0, Reservation_fails = 0
	L1D_cache_core[13]: Access = 0, Miss = 0, Miss_rate = -nan, Pending_hits = 0, Reservation_fails = 0
	L1D_cache_core[14]: Access = 0, Miss = 0, Miss_rate = -nan, Pending_hits = 0, Reservation_fails = 0
	L1D_total_cache_accesses = 0
	L1D_total_cache_misses = 0
	L1D_total_cache_pending_hits = 0
	L1D_total_cache_reservation_fails = 0
	L1D_cache_data_port_util = 0.000
	L1D_cache_fill_port_util = 0.000
L1C_cache:
	L1C_total_cache_accesses = 6
	L1C_total_cache_misses = 3
	L1C_total_cache_miss_rate = 0.5000
	L1C_total_cache_pending_hits = 0
	L1C_total_cache_reservation_fails = 0
L1T_cache:
	L1T_total_cache_accesses = 0
	L1T_total_cache_misses = 0
	L1T_total_cache_pending_hits = 0
	L1T_total_cache_reservation_fails = 0

Total_core_cache_stats:
	Total_core_cache_stats_breakdown[CONST_ACC_R][HIT] = 3
	Total_core_cache_stats_breakdown[CONST_ACC_R][MISS] = 3
	Total_core_cache_stats_breakdown[INST_ACC_R][HIT] = 2029
	Total_core_cache_stats_breakdown[INST_ACC_R][MISS] = 17
Shader 0 warp_id issue ditsribution:
warp_id:

distro:

gpgpu_n_tot_thrd_icount = 116800
gpgpu_n_tot_w_icount = 3650
gpgpu_n_stall_shd_mem = 546
gpgpu_n_mem_read_local = 0
gpgpu_n_mem_write_local = 0
gpgpu_n_mem_read_global = 16
gpgpu_n_mem_write_global = 15
gpgpu_n_mem_texture = 0
gpgpu_n_mem_const = 1
gpgpu_n_load_insn  = 256
gpgpu_n_store_insn = 240
gpgpu_n_shmem_insn = 4801
gpgpu_n_tex_insn = 0
gpgpu_n_const_mem_insn = 0
gpgpu_n_param_mem_insn = 96
gpgpu_n_shmem_bkconflict = 0
gpgpu_n_cache_bkconflict = 0
gpgpu_n_intrawarp_mshr_merge = 0
gpgpu_n_cmem_portconflict = 0
gpgpu_stall_shd_mem[c_mem][bk_conf] = 0
gpgpu_stall_shd_mem[c_mem][mshr_rc] = 0
gpgpu_stall_shd_mem[c_mem][icnt_rc] = 0
gpgpu_stall_shd_mem[c_mem][data_port_stall] = 0
gpgpu_stall_shd_mem[t_mem][mshr_rc] = 0
gpgpu_stall_shd_mem[t_mem][icnt_rc] = 0
gpgpu_stall_shd_mem[t_mem][data_port_stall] = 0
gpgpu_stall_shd_mem[s_mem][bk_conf] = 546
gpgpu_stall_shd_mem[gl_mem][bk_conf] = 0
gpgpu_stall_shd_mem[gl_mem][coal_stall] = 0
gpgpu_stall_shd_mem[gl_mem][data_port_stall] = 0
gpgpu_stall_shd_mem[g_mem_ld][mshr_rc] = 0
gpgpu_stall_shd_mem[g_mem_ld][icnt_rc] = 0
gpgpu_stall_shd_mem[g_mem_ld][wb_icnt_rc] = 0
gpgpu_stall_shd_mem[g_mem_ld][wb_rsrv_fail] = 0
gpgpu_stall_shd_mem[g_mem_st][mshr_rc] = 0
gpgpu_stall_shd_mem[g_mem_st][icnt_rc] = 0
gpgpu_stall_shd_mem[g_mem_st][wb_icnt_rc] = 0
gpgpu_stall_shd_mem[g_mem_st][wb_rsrv_fail] = 0
gpgpu_stall_shd_mem[l_mem_ld][mshr_rc] = 0
gpgpu_stall_shd_mem[l_mem_ld][icnt_rc] = 0
gpgpu_stall_shd_mem[l_mem_ld][wb_icnt_rc] = 0
gpgpu_stall_shd_mem[l_mem_ld][wb_rsrv_fail] = 0
gpgpu_stall_shd_mem[l_mem_st][mshr_rc] = 0
gpgpu_stall_shd_mem[l_mem_st][icnt_rc] = 0
gpgpu_stall_shd_mem[l_mem_ld][wb_icnt_rc] = 0
gpgpu_stall_shd_mem[l_mem_ld][wb_rsrv_fail] = 0
gpu_reg_bank_conflict_stalls = 0
Warp Occupancy Distribution:
Stall:0	W0_Idle:34469	W0_Scoreboard:16813	W1:377	W2:353	W3:329	W4:305	W5:281	W6:257	W7:233	W8:209	W9:185	W10:161	W11:137	W12:113	W13:89	W14:65	W15:37	W16:519	W17:0	W18:0	W19:0	W20:0	W21:0	W22:0	W23:0	W24:0	W25:0	W26:0	W27:0	W28:0	W29:0	W30:0	W31:0	W32:0
traffic_breakdown_coretomem[CONST_ACC_R] = 8 {8:1,}
traffic_breakdown_coretomem[GLOBAL_ACC_R] = 128 {8:16,}
traffic_breakdown_coretomem[GLOBAL_ACC_W] = 1080 {72:15,}
traffic_breakdown_coretomem[INST_ACC_R] = 136 {8:17,}
traffic_breakdown_memtocore[CONST_ACC_R] = 72 {72:1,}
traffic_breakdown_memtocore[GLOBAL_ACC_R] = 1152 {72:16,}
traffic_breakdown_memtocore[GLOBAL_ACC_W] = 120 {8:15,}
traffic_breakdown_memtocore[INST_ACC_R] = 2312 {136:17,}
maxmrqlatency = 1 
maxdqlatency = 0 
maxmflatency = 285 
averagemflatency = 217 
max_icnt2mem_latency = 10 
max_icnt2sh_latency = 27451 
mrq_lat_table:34 	0 	0 	0 	0 	0 	0 	0 	0 	0 	0 	0 	0 	0 	0 	0 	0 	0 	0 	0 	0 	0 	0 	0 	0 	0 	0 	0 	0 	0 	0 	0 	
dq_lat_table:0 	0 	0 	0 	0 	0 	0 	0 	0 	0 	0 	0 	0 	0 	0 	0 	0 	0 	0 	0 	0 	0 	0 	0 	0 	0 	0 	0 	0 	0 	0 	0 	
mf_lat_table:0 	0 	0 	0 	0 	0 	0 	15 	17 	0 	0 	0 	0 	0 	0 	0 	0 	0 	0 	0 	0 	0 	0 	0 	0 	0 	0 	0 	0 	0 	0 	0 	
icnt2mem_lat_table:0 	0 	0 	49 	0 	0 	0 	0 	0 	0 	0 	0 	0 	0 	0 	0 	0 	0 	0 	0 	0 	0 	0 	0 	
icnt2sh_lat_table:0 	0 	0 	17 	0 	0 	0 	0 	0 	0 	0 	0 	0 	0 	15 	0 	0 	0 	0 	0 	0 	0 	0 	0 	
mf_lat_pw_table:0 	0 	0 	0 	0 	0 	0 	3 	12 	0 	0 	0 	0 	0 	0 	0 	0 	0 	0 	0 	0 	0 	0 	0 	0 	0 	0 	0 	0 	0 	0 	0 	
maximum concurrent accesses to same row:
dram[0]:         1         0         0         0         0         0         0         0         0         0         0         0         0         0         0         0 
dram[1]:         0         0         0         0         0         0         0         0         0         0         0         0         0         0         0         0 
dram[2]:         0         0         0         0         0         0         0         0         0         0         0         0         0         0         0         0 
dram[3]:         0         0         0         0         0         0         0         0         0         0         0         0         0         0         0         0 
dram[4]:         0         0         0         0         0         0         0         0         0         0         0         0         0         0         0         0 
dram[5]:         0         0         0         0         0         0         0         0         0         0         0         0         0         0         0         0 
maximum service time to same row:
dram[0]:       626     25733         0         0      1444         0         0         0         0         0         0         0         0         0         0         0 
dram[1]:      2345     26474         0         0         0         0         0         0         0         0         0         0         0         0         0         0 
dram[2]:      4686     27218         0         0         0       853         0         0         0         0         0         0         0         0         0         0 
dram[3]:      7006         0         0         0         0         0         0         0         0         0         0         0         0         0         0         0 
dram[4]:      7637         0         0         0      1762         0         0         0         0         0         0         0         0         0         0         0 
dram[5]:      8346         0         0         0         0         0         0         0         0         0         0         0         0         0         0         0 
average row accesses per activate:
dram[0]:  1.000000  2.000000      -nan      -nan  5.000000      -nan      -nan      -nan      -nan      -nan      -nan      -nan      -nan      -nan      -nan      -nan 
dram[1]:  2.000000  2.000000      -nan      -nan      -nan      -nan      -nan      -nan      -nan      -nan      -nan      -nan      -nan      -nan      -nan      -nan 
dram[2]:  2.000000  1.000000      -nan      -nan      -nan  6.000000      -nan      -nan      -nan      -nan      -nan      -nan      -nan      -nan      -nan      -nan 
dram[3]:  2.000000      -nan      -nan      -nan      -nan      -nan      -nan      -nan      -nan      -nan      -nan      -nan      -nan      -nan      -nan      -nan 
dram[4]:  2.000000      -nan      -nan      -nan  5.000000      -nan      -nan      -nan      -nan      -nan      -nan      -nan      -nan      -nan      -nan      -nan 
dram[5]:  2.000000      -nan      -nan      -nan      -nan      -nan      -nan      -nan      -nan      -nan      -nan      -nan      -nan      -nan      -nan      -nan 
average row locality = 34/14 = 2.428571
number of total memory accesses made:
dram[0]:         0         0         0         0         0         0         0         0         0         0         0         0         0         0         0         0 
dram[1]:         0         0         0         0         0         0         0         0         0         0         0         0         0         0         0         0 
dram[2]:         0         0         0         0         0         0         0         0         0         0         0         0         0         0         0         0 
dram[3]:         0         0         0         0         0         0         0         0         0         0         0         0         0         0         0         0 
dram[4]:         0         0         0         0         0         0         0         0         0         0         0         0         0         0         0         0 
dram[5]:         0         0         0         0         0         0         0         0         0         0         0         0         0         0         0         0 
total accesses: 0
min_bank_accesses = 0!
min_chip_accesses = 0!
number of total read accesses:
dram[0]:         3         2         0         0         5         0         0         0         0         0         0         0         0         0         0         0 
dram[1]:         2         2         0         0         0         0         0         0         0         0         0         0         0         0         0         0 
dram[2]:         2         1         0         0         0         6         0         0         0         0         0         0         0         0         0         0 
dram[3]:         2         0         0         0         0         0         0         0         0         0         0         0         0         0         0         0 
dram[4]:         2         0         0         0         5         0         0         0         0         0         0         0         0         0         0         0 
dram[5]:         2         0         0         0         0         0         0         0         0         0         0         0         0         0         0         0 
total reads: 34
min_bank_accesses = 0!
chip skew: 10/2 = 5.00
number of total write accesses:
dram[0]:         0         0         0         0         0         0         0         0         0         0         0         0         0         0         0         0 
dram[1]:         0         0         0         0         0         0         0         0         0         0         0         0         0         0         0         0 
dram[2]:         0         0         0         0         0         0         0         0         0         0         0         0         0         0         0         0 
dram[3]:         0         0         0         0         0         0         0         0         0         0         0         0         0         0         0         0 
dram[4]:         0         0         0         0         0         0         0         0         0         0         0         0         0         0         0         0 
dram[5]:         0         0         0         0         0         0         0         0         0         0         0         0         0         0         0         0 
total reads: 0
min_bank_accesses = 0!
min_chip_accesses = 0!
average mf latency per bank:
dram[0]:         95         0    none      none         402    none      none      none      none      none      none      none      none      none      none      none  
dram[1]:          0         0    none      none      none      none      none      none      none      none      none      none      none      none      none      none  
dram[2]:          0         0    none      none      none         378    none      none      none      none      none      none      none      none      none      none  
dram[3]:          0    none      none      none      none      none      none      none      none      none      none      none      none      none      none      none  
dram[4]:          0    none      none      none         402    none      none      none      none      none      none      none      none      none      none      none  
dram[5]:          0    none      none      none      none      none      none      none      none      none      none      none      none      none      none      none  
maximum mf latency per bank:
dram[0]:        285         0         0         0       272         0         0         0         0         0         0         0         0         0         0         0
dram[1]:          0         0         0         0         0         0         0         0         0         0         0         0         0         0         0         0
dram[2]:          0         0         0         0         0       272         0         0         0         0         0         0         0         0         0         0
dram[3]:          0         0         0         0         0         0         0         0         0         0         0         0         0         0         0         0
dram[4]:          0         0         0         0       272         0         0         0         0         0         0         0         0         0         0         0
dram[5]:          0         0         0         0         0         0         0         0         0         0         0         0         0         0         0         0
Memory Partition 0: 
Cache L2_bank_000:
MSHR contents

Cache L2_bank_001:
MSHR contents

In Dram Latency Queue (total = 0): 
DRAM[0]: 16 bks, busW=4 BL=8 CL=12, tRRD=2 tCCD=6, tRCD=12 tRAS=28 tRP=12 tRC=40
n_cmd=27452 n_nop=27425 n_act=5 n_pre=2 n_req=10 n_rd=20 n_write=0 bw_util=0.001457
n_activity=299 dram_eff=0.1338
bk0: 6a 27381i bk1: 4a 27430i bk2: 0a 27452i bk3: 0a 27452i bk4: 10a 27419i bk5: 0a 27450i bk6: 0a 27450i bk7: 0a 27450i bk8: 0a 27451i bk9: 0a 27451i bk10: 0a 27453i bk11: 0a 27453i bk12: 0a 27453i bk13: 0a 27453i bk14: 0a 27453i bk15: 0a 27453i 
dram_util_bins: 0 0 0 0 0 0 0 0 0 0
dram_eff_bins: 0 0 0 0 0 0 0 0 0 0
mrqq: max=0 avg=0
Memory Partition 1: 
Cache L2_bank_002:
MSHR contents

Cache L2_bank_003:
MSHR contents

In Dram Latency Queue (total = 0): 
DRAM[1]: 16 bks, busW=4 BL=8 CL=12, tRRD=2 tCCD=6, tRCD=12 tRAS=28 tRP=12 tRC=40
n_cmd=27452 n_nop=27442 n_act=2 n_pre=0 n_req=4 n_rd=8 n_write=0 bw_util=0.0005828
n_activity=110 dram_eff=0.1455
bk0: 4a 27432i bk1: 4a 27432i bk2: 0a 27451i bk3: 0a 27452i bk4: 0a 27452i bk5: 0a 27452i bk6: 0a 27452i bk7: 0a 27452i bk8: 0a 27452i bk9: 0a 27452i bk10: 0a 27452i bk11: 0a 27452i bk12: 0a 27452i bk13: 0a 27452i bk14: 0a 27452i bk15: 0a 27452i 
dram_util_bins: 0 0 0 0 0 0 0 0 0 0
dram_eff_bins: 0 0 0 0 0 0 0 0 0 0
mrqq: max=0 avg=0
Memory Partition 2: 
Cache L2_bank_004:
MSHR contents

Cache L2_bank_005:
MSHR contents

In Dram Latency Queue (total = 0): 
DRAM[2]: 16 bks, busW=4 BL=8 CL=12, tRRD=2 tCCD=6, tRCD=12 tRAS=28 tRP=12 tRC=40
n_cmd=27452 n_nop=27431 n_act=3 n_pre=0 n_req=9 n_rd=18 n_write=0 bw_util=0.001311
n_activity=210 dram_eff=0.1714
bk0: 4a 27433i bk1: 2a 27436i bk2: 0a 27451i bk3: 0a 27451i bk4: 0a 27451i bk5: 12a 27415i bk6: 0a 27450i bk7: 0a 27450i bk8: 0a 27451i bk9: 0a 27451i bk10: 0a 27452i bk11: 0a 27453i bk12: 0a 27453i bk13: 0a 27453i bk14: 0a 27453i bk15: 0a 27454i 
dram_util_bins: 0 0 0 0 0 0 0 0 0 0
dram_eff_bins: 0 0 0 0 0 0 0 0 0 0
mrqq: max=0 avg=0
Memory Partition 3: 
Cache L2_bank_006:
MSHR contents

Cache L2_bank_007:
MSHR contents

In Dram Latency Queue (total = 0): 
DRAM[3]: 16 bks, busW=4 BL=8 CL=12, tRRD=2 tCCD=6, tRCD=12 tRAS=28 tRP=12 tRC=40
n_cmd=27452 n_nop=27447 n_act=1 n_pre=0 n_req=2 n_rd=4 n_write=0 bw_util=0.0002914
n_activity=55 dram_eff=0.1455
bk0: 4a 27432i bk1: 0a 27452i bk2: 0a 27452i bk3: 0a 27452i bk4: 0a 27452i bk5: 0a 27452i bk6: 0a 27452i bk7: 0a 27452i bk8: 0a 27452i bk9: 0a 27452i bk10: 0a 27452i bk11: 0a 27452i bk12: 0a 27452i bk13: 0a 27452i bk14: 0a 27452i bk15: 0a 27452i 
dram_util_bins: 0 0 0 0 0 0 0 0 0 0
dram_eff_bins: 0 0 0 0 0 0 0 0 0 0
mrqq: max=0 avg=0
Memory Partition 4: 
Cache L2_bank_008:
MSHR contents

Cache L2_bank_009:
MSHR contents

In Dram Latency Queue (total = 0): 
DRAM[4]: 16 bks, busW=4 BL=8 CL=12, tRRD=2 tCCD=6, tRCD=12 tRAS=28 tRP=12 tRC=40
n_cmd=27452 n_nop=27436 n_act=2 n_pre=0 n_req=7 n_rd=14 n_write=0 bw_util=0.00102
n_activity=155 dram_eff=0.1806
bk0: 4a 27432i bk1: 0a 27452i bk2: 0a 27452i bk3: 0a 27452i bk4: 10a 27419i bk5: 0a 27450i bk6: 0a 27450i bk7: 0a 27450i bk8: 0a 27451i bk9: 0a 27452i bk10: 0a 27453i bk11: 0a 27453i bk12: 0a 27453i bk13: 0a 27453i bk14: 0a 27453i bk15: 0a 27453i 
dram_util_bins: 0 0 0 0 0 0 0 0 0 0
dram_eff_bins: 0 0 0 0 0 0 0 0 0 0
mrqq: max=0 avg=0
Memory Partition 5: 
Cache L2_bank_010:
MSHR contents

Cache L2_bank_011:
MSHR contents

In Dram Latency Queue (total = 0): 
DRAM[5]: 16 bks, busW=4 BL=8 CL=12, tRRD=2 tCCD=6, tRCD=12 tRAS=28 tRP=12 tRC=40
n_cmd=27452 n_nop=27447 n_act=1 n_pre=0 n_req=2 n_rd=4 n_write=0 bw_util=0.0002914
n_activity=55 dram_eff=0.1455
bk0: 4a 27432i bk1: 0a 27452i bk2: 0a 27452i bk3: 0a 27452i bk4: 0a 27452i bk5: 0a 27452i bk6: 0a 27452i bk7: 0a 27452i bk8: 0a 27452i bk9: 0a 27452i bk10: 0a 27452i bk11: 0a 27452i bk12: 0a 27452i bk13: 0a 27452i bk14: 0a 27452i bk15: 0a 27452i 
dram_util_bins: 0 0 0 0 0 0 0 0 0 0
dram_eff_bins: 0 0 0 0 0 0 0 0 0 0
mrqq: max=0 avg=0

========= L2 cache stats =========
L2_cache_bank[0]: Access = 13, Miss = 8, Miss_rate = 0.615, Pending_hits = 0, Reservation_fails = 0
L2_cache_bank[1]: Access = 2, Miss = 2, Miss_rate = 1.000, Pending_hits = 0, Reservation_fails = 0
L2_cache_bank[2]: Access = 2, Miss = 2, Miss_rate = 1.000, Pending_hits = 0, Reservation_fails = 0
L2_cache_bank[3]: Access = 2, Miss = 2, Miss_rate = 1.000, Pending_hits = 0, Reservation_fails = 0
L2_cache_bank[4]: Access = 2, Miss = 2, Miss_rate = 1.000, Pending_hits = 0, Reservation_fails = 0
L2_cache_bank[5]: Access = 12, Miss = 7, Miss_rate = 0.583, Pending_hits = 0, Reservation_fails = 0
L2_cache_bank[6]: Access = 2, Miss = 2, Miss_rate = 1.000, Pending_hits = 0, Reservation_fails = 0
L2_cache_bank[7]: Access = 0, Miss = 0, Miss_rate = -nan, Pending_hits = 0, Reservation_fails = 0
L2_cache_bank[8]: Access = 12, Miss = 7, Miss_rate = 0.583, Pending_hits = 0, Reservation_fails = 0
L2_cache_bank[9]: Access = 0, Miss = 0, Miss_rate = -nan, Pending_hits = 0, Reservation_fails = 0
L2_cache_bank[10]: Access = 2, Miss = 2, Miss_rate = 1.000, Pending_hits = 0, Reservation_fails = 0
L2_cache_bank[11]: Access = 0, Miss = 0, Miss_rate = -nan, Pending_hits = 0, Reservation_fails = 0
L2_total_cache_accesses = 49
L2_total_cache_misses = 34
L2_total_cache_miss_rate = 0.6939
L2_total_cache_pending_hits = 0
L2_total_cache_reservation_fails = 0
L2_total_cache_breakdown:
	L2_cache_stats_breakdown[GLOBAL_ACC_R][MISS] = 16
	L2_cache_stats_breakdown[CONST_ACC_R][MISS] = 1
	L2_cache_stats_breakdown[GLOBAL_ACC_W][HIT] = 15
	L2_cache_stats_breakdown[INST_ACC_R][MISS] = 17
L2_cache_data_port_util = 0.000
L2_cache_fill_port_util = 0.000

icnt_total_pkts_mem_to_simt=151
icnt_total_pkts_simt_to_mem=79
LD_mem_lat_dist  0 0 0 0 0 0 0 0 0 0 0 0 0 0 0 0 0 0 0 0 0 0 0 0 0 0 0
ST_mem_lat_dist  0 0 0 0 0 0 0 0 0 0 0 0 0 0 0 0 0 0 0 0 0 0 0 0 0 0 0
----------------------------Interconnect-DETAILS--------------------------------
Class 0:
Packet latency average = 7.34694
	minimum = 6
	maximum = 10
Network latency average = 7.34694
	minimum = 6
	maximum = 10
Slowest packet = 1
Flit latency average = 6
	minimum = 6
	maximum = 6
Slowest flit = 0
Fragmentation average = 0
	minimum = 0
	maximum = 0
Injected packet rate average = 0.000132217
	minimum = 0 (at node 0)
	maximum = 0.00178493 (at node 1)
Accepted packet rate average = 0.000132217
	minimum = 0 (at node 0)
	maximum = 0.00178493 (at node 1)
Injected flit rate average = 0.000310306
	minimum = 0 (at node 0)
	maximum = 0.00287775 (at node 1)
Accepted flit rate average= 0.000310306
	minimum = 0 (at node 0)
	maximum = 0.00550051 (at node 1)
Injected packet length average = 2.34694
Accepted packet length average = 2.34694
Total in-flight flits = 0 (0 measured)
====== Overall Traffic Statistics ======
====== Traffic class 0 ======
Packet latency average = 7.34694 (1 samples)
	minimum = 6 (1 samples)
	maximum = 10 (1 samples)
Network latency average = 7.34694 (1 samples)
	minimum = 6 (1 samples)
	maximum = 10 (1 samples)
Flit latency average = 6 (1 samples)
	minimum = 6 (1 samples)
	maximum = 6 (1 samples)
Fragmentation average = 0 (1 samples)
	minimum = 0 (1 samples)
	maximum = 0 (1 samples)
Injected packet rate average = 0.000132217 (1 samples)
	minimum = 0 (1 samples)
	maximum = 0.00178493 (1 samples)
Accepted packet rate average = 0.000132217 (1 samples)
	minimum = 0 (1 samples)
	maximum = 0.00178493 (1 samples)
Injected flit rate average = 0.000310306 (1 samples)
	minimum = 0 (1 samples)
	maximum = 0.00287775 (1 samples)
Accepted flit rate average = 0.000310306 (1 samples)
	minimum = 0 (1 samples)
	maximum = 0.00550051 (1 samples)
Injected packet size average = 2.34694 (1 samples)
Accepted packet size average = 2.34694 (1 samples)
Hops average = 1 (1 samples)
----------------------------END-of-Interconnect-DETAILS-------------------------


gpgpu_simulation_time = 0 days, 0 hrs, 0 min, 8 sec (8 sec)
gpgpu_simulation_rate = 3252 (inst/sec)
gpgpu_simulation_rate = 3431 (cycle/sec)

GPGPU-Sim PTX: cudaLaunch for 0x0x401cc0 (mode=performance simulation) on stream 0
GPGPU-Sim PTX: pushing kernel '_Z13lud_perimeterPfii' to stream 0, gridDim= (15,1,1) blockDim = (32,1,1) 
kernel '_Z13lud_perimeterPfii' transfer to GPU hardware scheduler
GPGPU-Sim uArch: Shader 2 bind to kernel 2 '_Z13lud_perimeterPfii'
GPGPU-Sim uArch: CTA/core = 8, limited by: cta_limit
GPGPU-Sim uArch: core:  2, cta: 0 initialized @(1,27452)
GPGPU-Sim uArch: Shader 3 bind to kernel 2 '_Z13lud_perimeterPfii'
GPGPU-Sim uArch: core:  3, cta: 0 initialized @(1,27452)
GPGPU-Sim uArch: Shader 4 bind to kernel 2 '_Z13lud_perimeterPfii'
GPGPU-Sim uArch: core:  4, cta: 0 initialized @(1,27452)
GPGPU-Sim uArch: Shader 5 bind to kernel 2 '_Z13lud_perimeterPfii'
GPGPU-Sim uArch: core:  5, cta: 0 initialized @(1,27452)
GPGPU-Sim uArch: Shader 6 bind to kernel 2 '_Z13lud_perimeterPfii'
GPGPU-Sim uArch: core:  6, cta: 0 initialized @(1,27452)
GPGPU-Sim uArch: Shader 7 bind to kernel 2 '_Z13lud_perimeterPfii'
GPGPU-Sim uArch: core:  7, cta: 0 initialized @(1,27452)
GPGPU-Sim uArch: Shader 8 bind to kernel 2 '_Z13lud_perimeterPfii'
GPGPU-Sim uArch: core:  8, cta: 0 initialized @(1,27452)
GPGPU-Sim uArch: Shader 9 bind to kernel 2 '_Z13lud_perimeterPfii'
GPGPU-Sim uArch: core:  9, cta: 0 initialized @(1,27452)
GPGPU-Sim uArch: Shader 10 bind to kernel 2 '_Z13lud_perimeterPfii'
GPGPU-Sim uArch: core: 10, cta: 0 initialized @(1,27452)
GPGPU-Sim uArch: Shader 11 bind to kernel 2 '_Z13lud_perimeterPfii'
GPGPU-Sim uArch: core: 11, cta: 0 initialized @(1,27452)
GPGPU-Sim uArch: Shader 12 bind to kernel 2 '_Z13lud_perimeterPfii'
GPGPU-Sim uArch: core: 12, cta: 0 initialized @(1,27452)
GPGPU-Sim uArch: Shader 13 bind to kernel 2 '_Z13lud_perimeterPfii'
GPGPU-Sim uArch: core: 13, cta: 0 initialized @(1,27452)
GPGPU-Sim uArch: Shader 14 bind to kernel 2 '_Z13lud_perimeterPfii'
GPGPU-Sim uArch: core: 14, cta: 0 initialized @(1,27452)
GPGPU-Sim uArch: Shader 0 bind to kernel 2 '_Z13lud_perimeterPfii'
GPGPU-Sim uArch: core:  0, cta: 0 initialized @(1,27452)
GPGPU-Sim uArch: Shader 1 bind to kernel 2 '_Z13lud_perimeterPfii'
GPGPU-Sim uArch: core:  1, cta: 0 initialized @(1,27452)
GPGPU-Sim uArch: cycles simulated: 27952  inst.: 30786 (ipc= 9.5) sim_rate=3848 (inst/sec) elapsed = 0:0:00:08 / Wed Jan 30 01:33:35 2019
GPGPU-Sim uArch: cycles simulated: 28952  inst.: 37522 (ipc= 7.7) sim_rate=4169 (inst/sec) elapsed = 0:0:00:09 / Wed Jan 30 01:33:36 2019
GPGPU-Sim uArch: cycles simulated: 29952  inst.: 41858 (ipc= 6.3) sim_rate=4185 (inst/sec) elapsed = 0:0:00:10 / Wed Jan 30 01:33:37 2019
GPGPU-Sim uArch: cycles simulated: 31452  inst.: 47298 (ipc= 5.3) sim_rate=4299 (inst/sec) elapsed = 0:0:00:11 / Wed Jan 30 01:33:38 2019
GPGPU-Sim uArch: cycles simulated: 32952  inst.: 53618 (ipc= 5.0) sim_rate=4468 (inst/sec) elapsed = 0:0:00:12 / Wed Jan 30 01:33:39 2019
GPGPU-Sim uArch: cycles simulated: 33952  inst.: 57186 (ipc= 4.8) sim_rate=4398 (inst/sec) elapsed = 0:0:00:13 / Wed Jan 30 01:33:40 2019
GPGPU-Sim uArch: cycles simulated: 35452  inst.: 63922 (ipc= 4.7) sim_rate=4565 (inst/sec) elapsed = 0:0:00:14 / Wed Jan 30 01:33:41 2019
GPGPU-Sim uArch: cycles simulated: 36952  inst.: 72306 (ipc= 4.9) sim_rate=4820 (inst/sec) elapsed = 0:0:00:15 / Wed Jan 30 01:33:42 2019
GPGPU-Sim uArch: cycles simulated: 37952  inst.: 75362 (ipc= 4.7) sim_rate=4710 (inst/sec) elapsed = 0:0:00:16 / Wed Jan 30 01:33:43 2019
GPGPU-Sim uArch: cycles simulated: 39452  inst.: 79618 (ipc= 4.5) sim_rate=4683 (inst/sec) elapsed = 0:0:00:17 / Wed Jan 30 01:33:44 2019
GPGPU-Sim uArch: cycles simulated: 40952  inst.: 84226 (ipc= 4.3) sim_rate=4679 (inst/sec) elapsed = 0:0:00:18 / Wed Jan 30 01:33:45 2019
GPGPU-Sim uArch: cycles simulated: 41952  inst.: 88562 (ipc= 4.3) sim_rate=4661 (inst/sec) elapsed = 0:0:00:19 / Wed Jan 30 01:33:46 2019
GPGPU-Sim PTX: 100000 instructions simulated : ctaid=(14,0,0) tid=(3,0,0)
GPGPU-Sim uArch: cycles simulated: 43452  inst.: 146850 (ipc= 7.6) sim_rate=7342 (inst/sec) elapsed = 0:0:00:20 / Wed Jan 30 01:33:47 2019
GPGPU-Sim uArch: cycles simulated: 44452  inst.: 196786 (ipc=10.0) sim_rate=9370 (inst/sec) elapsed = 0:0:00:21 / Wed Jan 30 01:33:48 2019
GPGPU-Sim PTX: 200000 instructions simulated : ctaid=(6,0,0) tid=(3,0,0)
GPGPU-Sim uArch: cycles simulated: 45952  inst.: 271586 (ipc=13.3) sim_rate=12344 (inst/sec) elapsed = 0:0:00:22 / Wed Jan 30 01:33:49 2019
GPGPU-Sim PTX: 300000 instructions simulated : ctaid=(2,0,0) tid=(3,0,0)
GPGPU-Sim uArch: cycles simulated: 46952  inst.: 321394 (ipc=15.1) sim_rate=13973 (inst/sec) elapsed = 0:0:00:23 / Wed Jan 30 01:33:50 2019
GPGPU-Sim uArch: cycles simulated: 47952  inst.: 371250 (ipc=16.8) sim_rate=15468 (inst/sec) elapsed = 0:0:00:24 / Wed Jan 30 01:33:51 2019
GPGPU-Sim PTX: 400000 instructions simulated : ctaid=(2,0,0) tid=(3,0,0)
GPGPU-Sim uArch: cycles simulated: 49452  inst.: 445826 (ipc=19.1) sim_rate=17833 (inst/sec) elapsed = 0:0:00:25 / Wed Jan 30 01:33:52 2019
GPGPU-Sim uArch: cycles simulated: 50452  inst.: 493794 (ipc=20.3) sim_rate=18992 (inst/sec) elapsed = 0:0:00:26 / Wed Jan 30 01:33:53 2019
GPGPU-Sim PTX: 500000 instructions simulated : ctaid=(13,0,0) tid=(19,0,0)
GPGPU-Sim uArch: cycles simulated: 51452  inst.: 518722 (ipc=20.5) sim_rate=19211 (inst/sec) elapsed = 0:0:00:27 / Wed Jan 30 01:33:54 2019
GPGPU-Sim uArch: cycles simulated: 52952  inst.: 578066 (ipc=21.6) sim_rate=20645 (inst/sec) elapsed = 0:0:00:28 / Wed Jan 30 01:33:55 2019
GPGPU-Sim PTX: 600000 instructions simulated : ctaid=(0,0,0) tid=(19,0,0)
GPGPU-Sim uArch: cycles simulated: 53952  inst.: 619298 (ipc=22.4) sim_rate=21355 (inst/sec) elapsed = 0:0:00:29 / Wed Jan 30 01:33:56 2019
GPGPU-Sim uArch: cycles simulated: 55452  inst.: 680530 (ipc=23.4) sim_rate=22684 (inst/sec) elapsed = 0:0:00:30 / Wed Jan 30 01:33:57 2019
GPGPU-Sim PTX: 700000 instructions simulated : ctaid=(11,0,0) tid=(19,0,0)
GPGPU-Sim uArch: cycles simulated: 56452  inst.: 720354 (ipc=23.9) sim_rate=23237 (inst/sec) elapsed = 0:0:00:31 / Wed Jan 30 01:33:58 2019
GPGPU-Sim uArch: cycles simulated: 57452  inst.: 761826 (ipc=24.5) sim_rate=23807 (inst/sec) elapsed = 0:0:00:32 / Wed Jan 30 01:33:59 2019
GPGPU-Sim PTX: 800000 instructions simulated : ctaid=(3,0,0) tid=(19,0,0)
GPGPU-Sim uArch: cycles simulated: 58952  inst.: 824722 (ipc=25.4) sim_rate=24991 (inst/sec) elapsed = 0:0:00:33 / Wed Jan 30 01:34:00 2019
GPGPU-Sim uArch: cycles simulated: 59952  inst.: 866082 (ipc=25.8) sim_rate=25473 (inst/sec) elapsed = 0:0:00:34 / Wed Jan 30 01:34:01 2019
GPGPU-Sim PTX: 900000 instructions simulated : ctaid=(1,0,0) tid=(19,0,0)
GPGPU-Sim uArch: cycles simulated: 61452  inst.: 928962 (ipc=26.6) sim_rate=26541 (inst/sec) elapsed = 0:0:00:35 / Wed Jan 30 01:34:02 2019
GPGPU-Sim uArch: cycles simulated: 62452  inst.: 937666 (ipc=26.0) sim_rate=26046 (inst/sec) elapsed = 0:0:00:36 / Wed Jan 30 01:34:03 2019
GPGPU-Sim uArch: cycles simulated: 63952  inst.: 953842 (ipc=25.4) sim_rate=25779 (inst/sec) elapsed = 0:0:00:37 / Wed Jan 30 01:34:04 2019
GPGPU-Sim uArch: cycles simulated: 64952  inst.: 965010 (ipc=25.0) sim_rate=25395 (inst/sec) elapsed = 0:0:00:38 / Wed Jan 30 01:34:05 2019
GPGPU-Sim uArch: Shader 4 finished CTA #0 (38048,27452), 0 CTAs running
GPGPU-Sim uArch: Shader 4 empty (release kernel 2 '_Z13lud_perimeterPfii').
GPGPU-Sim uArch: Shader 6 finished CTA #0 (38050,27452), 0 CTAs running
GPGPU-Sim uArch: Shader 6 empty (release kernel 2 '_Z13lud_perimeterPfii').
GPGPU-Sim uArch: Shader 2 finished CTA #0 (38061,27452), 0 CTAs running
GPGPU-Sim uArch: Shader 2 empty (release kernel 2 '_Z13lud_perimeterPfii').
GPGPU-Sim uArch: Shader 3 finished CTA #0 (38066,27452), 0 CTAs running
GPGPU-Sim uArch: Shader 3 empty (release kernel 2 '_Z13lud_perimeterPfii').
GPGPU-Sim uArch: Shader 5 finished CTA #0 (38077,27452), 0 CTAs running
GPGPU-Sim uArch: Shader 5 empty (release kernel 2 '_Z13lud_perimeterPfii').
GPGPU-Sim uArch: Shader 7 finished CTA #0 (38080,27452), 0 CTAs running
GPGPU-Sim uArch: Shader 7 empty (release kernel 2 '_Z13lud_perimeterPfii').
GPGPU-Sim uArch: Shader 8 finished CTA #0 (38093,27452), 0 CTAs running
GPGPU-Sim uArch: Shader 8 empty (release kernel 2 '_Z13lud_perimeterPfii').
GPGPU-Sim uArch: Shader 1 finished CTA #0 (38100,27452), 0 CTAs running
GPGPU-Sim uArch: Shader 1 empty (release kernel 2 '_Z13lud_perimeterPfii').
GPGPU-Sim uArch: Shader 13 finished CTA #0 (38112,27452), 0 CTAs running
GPGPU-Sim uArch: Shader 13 empty (release kernel 2 '_Z13lud_perimeterPfii').
GPGPU-Sim uArch: Shader 0 finished CTA #0 (38119,27452), 0 CTAs running
GPGPU-Sim uArch: Shader 0 empty (release kernel 2 '_Z13lud_perimeterPfii').
GPGPU-Sim uArch: Shader 14 finished CTA #0 (38120,27452), 0 CTAs running
GPGPU-Sim uArch: Shader 14 empty (release kernel 2 '_Z13lud_perimeterPfii').
GPGPU-Sim uArch: Shader 9 finished CTA #0 (38127,27452), 0 CTAs running
GPGPU-Sim uArch: Shader 9 empty (release kernel 2 '_Z13lud_perimeterPfii').
GPGPU-Sim uArch: Shader 10 finished CTA #0 (38131,27452), 0 CTAs running
GPGPU-Sim uArch: Shader 10 empty (release kernel 2 '_Z13lud_perimeterPfii').
GPGPU-Sim uArch: Shader 11 finished CTA #0 (38140,27452), 0 CTAs running
GPGPU-Sim uArch: Shader 11 empty (release kernel 2 '_Z13lud_perimeterPfii').
GPGPU-Sim uArch: Shader 12 finished CTA #0 (38146,27452), 0 CTAs running
GPGPU-Sim uArch: Shader 12 empty (release kernel 2 '_Z13lud_perimeterPfii').
GPGPU-Sim uArch: GPU detected kernel '_Z13lud_perimeterPfii' finished on shader 12.
kernel_name = _Z13lud_perimeterPfii 
kernel_launch_uid = 2 
gpu_sim_cycle = 38147
gpu_sim_insn = 949440
gpu_ipc =      24.8890
gpu_tot_sim_cycle = 65599
gpu_tot_sim_insn = 975458
gpu_tot_ipc =      14.8700
gpu_tot_issued_cta = 0
gpu_stall_dramfull = 922
gpu_stall_icnt2sh    = 925
gpu_total_sim_rate=25669

========= Core cache stats =========
L1I_cache:
	L1I_total_cache_accesses = 35915
	L1I_total_cache_misses = 496
	L1I_total_cache_miss_rate = 0.0138
	L1I_total_cache_pending_hits = 0
	L1I_total_cache_reservation_fails = 0
L1D_cache:
	L1D_cache_core[0]: Access = 0, Miss = 0, Miss_rate = -nan, Pending_hits = 0, Reservation_fails = 0
	L1D_cache_core[1]: Access = 0, Miss = 0, Miss_rate = -nan, Pending_hits = 0, Reservation_fails = 0
	L1D_cache_core[2]: Access = 0, Miss = 0, Miss_rate = -nan, Pending_hits = 0, Reservation_fails = 0
	L1D_cache_core[3]: Access = 0, Miss = 0, Miss_rate = -nan, Pending_hits = 0, Reservation_fails = 0
	L1D_cache_core[4]: Access = 0, Miss = 0, Miss_rate = -nan, Pending_hits = 0, Reservation_fails = 0
	L1D_cache_core[5]: Access = 0, Miss = 0, Miss_rate = -nan, Pending_hits = 0, Reservation_fails = 0
	L1D_cache_core[6]: Access = 0, Miss = 0, Miss_rate = -nan, Pending_hits = 0, Reservation_fails = 0
	L1D_cache_core[7]: Access = 0, Miss = 0, Miss_rate = -nan, Pending_hits = 0, Reservation_fails = 0
	L1D_cache_core[8]: Access = 0, Miss = 0, Miss_rate = -nan, Pending_hits = 0, Reservation_fails = 0
	L1D_cache_core[9]: Access = 0, Miss = 0, Miss_rate = -nan, Pending_hits = 0, Reservation_fails = 0
	L1D_cache_core[10]: Access = 0, Miss = 0, Miss_rate = -nan, Pending_hits = 0, Reservation_fails = 0
	L1D_cache_core[11]: Access = 0, Miss = 0, Miss_rate = -nan, Pending_hits = 0, Reservation_fails = 0
	L1D_cache_core[12]: Access = 0, Miss = 0, Miss_rate = -nan, Pending_hits = 0, Reservation_fails = 0
	L1D_cache_core[13]: Access = 0, Miss = 0, Miss_rate = -nan, Pending_hits = 0, Reservation_fails = 0
	L1D_cache_core[14]: Access = 0, Miss = 0, Miss_rate = -nan, Pending_hits = 0, Reservation_fails = 0
	L1D_total_cache_accesses = 0
	L1D_total_cache_misses = 0
	L1D_total_cache_pending_hits = 0
	L1D_total_cache_reservation_fails = 0
	L1D_cache_data_port_util = 0.000
	L1D_cache_fill_port_util = 0.000
L1C_cache:
	L1C_total_cache_accesses = 141
	L1C_total_cache_misses = 17
	L1C_total_cache_miss_rate = 0.1206
	L1C_total_cache_pending_hits = 0
	L1C_total_cache_reservation_fails = 0
L1T_cache:
	L1T_total_cache_accesses = 0
	L1T_total_cache_misses = 0
	L1T_total_cache_pending_hits = 0
	L1T_total_cache_reservation_fails = 0

Total_core_cache_stats:
	Total_core_cache_stats_breakdown[CONST_ACC_R][HIT] = 124
	Total_core_cache_stats_breakdown[CONST_ACC_R][MISS] = 17
	Total_core_cache_stats_breakdown[INST_ACC_R][HIT] = 35419
	Total_core_cache_stats_breakdown[INST_ACC_R][MISS] = 496
Shader 0 warp_id issue ditsribution:
warp_id:
0, 
distro:
4001, 
gpgpu_n_tot_thrd_icount = 2037280
gpgpu_n_tot_w_icount = 63665
gpgpu_n_stall_shd_mem = 30681
gpgpu_n_mem_read_local = 0
gpgpu_n_mem_write_local = 0
gpgpu_n_mem_read_global = 736
gpgpu_n_mem_write_global = 480
gpgpu_n_mem_texture = 0
gpgpu_n_mem_const = 15
gpgpu_n_load_insn  = 11776
gpgpu_n_store_insn = 7680
gpgpu_n_shmem_insn = 215281
gpgpu_n_tex_insn = 0
gpgpu_n_const_mem_insn = 0
gpgpu_n_param_mem_insn = 2496
gpgpu_n_shmem_bkconflict = 0
gpgpu_n_cache_bkconflict = 0
gpgpu_n_intrawarp_mshr_merge = 0
gpgpu_n_cmem_portconflict = 0
gpgpu_stall_shd_mem[c_mem][bk_conf] = 0
gpgpu_stall_shd_mem[c_mem][mshr_rc] = 0
gpgpu_stall_shd_mem[c_mem][icnt_rc] = 0
gpgpu_stall_shd_mem[c_mem][data_port_stall] = 0
gpgpu_stall_shd_mem[t_mem][mshr_rc] = 0
gpgpu_stall_shd_mem[t_mem][icnt_rc] = 0
gpgpu_stall_shd_mem[t_mem][data_port_stall] = 0
gpgpu_stall_shd_mem[s_mem][bk_conf] = 30681
gpgpu_stall_shd_mem[gl_mem][bk_conf] = 0
gpgpu_stall_shd_mem[gl_mem][coal_stall] = 0
gpgpu_stall_shd_mem[gl_mem][data_port_stall] = 0
gpgpu_stall_shd_mem[g_mem_ld][mshr_rc] = 0
gpgpu_stall_shd_mem[g_mem_ld][icnt_rc] = 0
gpgpu_stall_shd_mem[g_mem_ld][wb_icnt_rc] = 0
gpgpu_stall_shd_mem[g_mem_ld][wb_rsrv_fail] = 0
gpgpu_stall_shd_mem[g_mem_st][mshr_rc] = 0
gpgpu_stall_shd_mem[g_mem_st][icnt_rc] = 0
gpgpu_stall_shd_mem[g_mem_st][wb_icnt_rc] = 0
gpgpu_stall_shd_mem[g_mem_st][wb_rsrv_fail] = 0
gpgpu_stall_shd_mem[l_mem_ld][mshr_rc] = 0
gpgpu_stall_shd_mem[l_mem_ld][icnt_rc] = 0
gpgpu_stall_shd_mem[l_mem_ld][wb_icnt_rc] = 0
gpgpu_stall_shd_mem[l_mem_ld][wb_rsrv_fail] = 0
gpgpu_stall_shd_mem[l_mem_st][mshr_rc] = 0
gpgpu_stall_shd_mem[l_mem_st][icnt_rc] = 0
gpgpu_stall_shd_mem[l_mem_ld][wb_icnt_rc] = 0
gpgpu_stall_shd_mem[l_mem_ld][wb_rsrv_fail] = 0
gpu_reg_bank_conflict_stalls = 0
Warp Occupancy Distribution:
Stall:0	W0_Idle:741015	W0_Scoreboard:393222	W1:377	W2:353	W3:329	W4:305	W5:281	W6:257	W7:233	W8:209	W9:185	W10:161	W11:137	W12:113	W13:89	W14:65	W15:37	W16:60249	W17:0	W18:0	W19:0	W20:0	W21:0	W22:0	W23:0	W24:0	W25:0	W26:0	W27:0	W28:0	W29:0	W30:0	W31:0	W32:285
traffic_breakdown_coretomem[CONST_ACC_R] = 120 {8:15,}
traffic_breakdown_coretomem[GLOBAL_ACC_R] = 5888 {8:736,}
traffic_breakdown_coretomem[GLOBAL_ACC_W] = 34560 {72:480,}
traffic_breakdown_coretomem[INST_ACC_R] = 3968 {8:496,}
traffic_breakdown_memtocore[CONST_ACC_R] = 1080 {72:15,}
traffic_breakdown_memtocore[GLOBAL_ACC_R] = 52992 {72:736,}
traffic_breakdown_memtocore[GLOBAL_ACC_W] = 3840 {8:480,}
traffic_breakdown_memtocore[INST_ACC_R] = 67456 {136:496,}

GPGPU-Sim PTX: cudaLaunch for 0x0x401c40 (mode=performance simulation) on stream 0
maxmrqlatency = 9 
maxdqlatency = 0 
maxmflatency = 293 
averagemflatency = 193 
max_icnt2mem_latency = 34 
max_icnt2sh_latency = 65598 
mrq_lat_table:415 	0 	1 	1 	0 	0 	0 	0 	0 	0 	0 	0 	0 	0 	0 	0 	0 	0 	0 	0 	0 	0 	0 	0 	0 	0 	0 	0 	0 	0 	0 	0 	
dq_lat_table:0 	0 	0 	0 	0 	0 	0 	0 	0 	0 	0 	0 	0 	0 	0 	0 	0 	0 	0 	0 	0 	0 	0 	0 	0 	0 	0 	0 	0 	0 	0 	0 	
mf_lat_table:0 	0 	0 	0 	0 	0 	0 	735 	496 	0 	0 	0 	0 	0 	0 	0 	0 	0 	0 	0 	0 	0 	0 	0 	0 	0 	0 	0 	0 	0 	0 	0 	
icnt2mem_lat_table:0 	0 	0 	1658 	66 	3 	0 	0 	0 	0 	0 	0 	0 	0 	0 	0 	0 	0 	0 	0 	0 	0 	0 	0 	
icnt2sh_lat_table:0 	0 	0 	739 	12 	0 	0 	0 	0 	0 	0 	0 	0 	0 	15 	430 	35 	0 	0 	0 	0 	0 	0 	0 	
mf_lat_pw_table:0 	0 	0 	0 	0 	0 	0 	29 	22 	0 	0 	0 	0 	0 	0 	0 	0 	0 	0 	0 	0 	0 	0 	0 	0 	0 	0 	0 	0 	0 	0 	0 	
maximum concurrent accesses to same row:
dram[0]:         1         0         0         0         0         0         0         0         0         0         0         0         0         0         0         0 
dram[1]:         0         0         0         0         0         0         0         0         0         0         0         0         0         0         0         0 
dram[2]:         0         0         0         0         0         0         0         0         0         0         0         0         0         0         0         0 
dram[3]:         0         0         0         0         0         0         0         0         0         0         0         0         0         0         0         0 
dram[4]:         0         0         0         0         0         0         0         0         0         0         0         0         0         0         0         0 
dram[5]:         0         0         0         0         0         0         0         0         0         0         0         0         0         0         0         0 
maximum service time to same row:
dram[0]:       626     25733         0         0      1444      3430      8754         0      9717         0      9738         0      9780         0      9762         0 
dram[1]:      2345     26474         0         0      2920      3400         0         0         0         0         0         0         0         0         0         0 
dram[2]:      4686     27218         0         0      2968       853         0      9342         0      9730         0      9774         0      9756         0      9744 
dram[3]:      7006      6717         0         0      2926      2609         0         0         0         0         0         0         0         0         0         0 
dram[4]: GPGPU-Sim PTX: pushing kernel '_Z12lud_internalPfii' to stream 0, gridDim= (15,15,1) blockDim = (16,16,1) 
     7637      8408         0         0      1762      2657      9047         0      9723         0      9768         0      9786         0      9750         0 
dram[5]:      8346     11002         0         0      3388      2615         0         0         0         0         0         0         0         0         0         0 
average row accesses per activate:
dram[0]:  1.666667  4.000000      -nan      -nan 10.000000 10.000000 16.000000      -nan 16.000000      -nan 16.000000      -nan 16.000000      -nan 16.000000      -nan 
dram[1]:  4.000000  4.000000      -nan      -nan 10.000000 10.000000      -nan      -nan      -nan      -nan      -nan      -nan      -nan      -nan      -nan      -nan 
dram[2]:  4.000000  4.000000      -nan      -nan 10.000000 12.000000      -nan 16.000000      -nan 16.000000      -nan 16.000000      -nan 16.000000      -nan 16.000000 
dram[3]:  4.000000  4.000000      -nan      -nan 10.000000 12.000000      -nan      -nan      -nan      -nan      -nan      -nan      -nan      -nan      -nan      -nan 
dram[4]:  4.000000  4.000000      -nan      -nan 10.000000 12.000000 16.000000      -nan 16.000000      -nan 16.000000      -nan 16.000000      -nan 16.000000      -nan 
dram[5]:  4.000000  4.000000      -nan      -nan 10.000000 12.000000      -nan      -nan      -nan      -nan      -nan      -nan      -nan      -nan      -nan      -nan 
average row locality = 417/41 = 10.170732
number of total memory accesses made:
dram[0]:         0         0         0         0         0         0         0         0         0         0         0         0         0         0         0         0 
dram[1]:         0         0         0         0         0         0         0         0         0         0         0         0         0         0         0         0 
dram[2]:         0         0         0         0         0         0         0         0         0         0         0         0         0         0         0         0 
dram[3]:         0         0         0         0         0         0         0         0         0         0         0         0         0         0         0         0 
dram[4]:         0         0         0         0         0         0         0         0         0         0         0         0         0         0         0         0 
dram[5]:         0         0         0         0         0         0         0         0         0         0         0         0         0         0         0         0 
total accesses: 0
min_bank_accesses = 0!
min_chip_accesses = 0!
number of total read accesses:
dram[0]:         5         4         0         0        10        10        16         0        16         0        16         0        16         0        16         0 
dram[1]:         4         4         0         0        10        10         0         0         0         0         0         0         0         0         0         0 
dram[2]:         4         4         0         0        10        12         0        16         0        16         0        16         0        16         0        16 
dram[3]:         4         4         0         0        10        12         0         0         0         0         0         0         0         0         0         0 
dram[4]:         4         4         0         0        10        12        16         0        16         0        16         0        16         0        16         0 
dram[5]:         4         4         0         0        10        12         0         0         0         0         0         0         0         0         0         0 
total reads: 417
min_bank_accesses = 0!
chip skew: 110/28 = 3.93
number of total write accesses:
dram[0]:         0         0         0         0         0         0         0         0         0         0         0         0         0         0         0         0 
dram[1]:         0         0         0         0         0         0         0         0         0         0         0         0         0         0         0         0 
dram[2]:         0         0         0         0         0         0         0         0         0         0         0         0         0         0         0         0 
dram[3]:         0         0         0         0         0         0         0         0         0         0         0         0         0         0         0         0 
dram[4]:         0         0         0         0         0         0         0         0         0         0         0         0         0         0         0         0 
dram[5]:         0         0         0         0         0         0         0         0         0         0         0         0         0         0         0         0 
total reads: 0
min_bank_accesses = 0!
min_chip_accesses = 0!
average mf latency per bank:
dram[0]:        451         0    none      none        1935       799       403    none         402    none         404    none         402    none         405    none  
dram[1]:          0         0    none      none         803       800    none      none      none      none      none      none      none      none      none      none  
dram[2]:          0         0    none      none         806      1744    none         402    none         410    none         429    none         438    none         422
dram[3]:          0         0    none      none         802       753    none      none      none      none      none      none      none      none      none      none  
dram[4]:          0         0    none      none        1795       756       402    none         402    none         404    none         405    none         405    none  
dram[5]:          0         0    none      none         800       749    none      none      none      none      none      none      none      none      none      none  
maximum mf latency per bank:
dram[0]:        285         0         0         0       291       272       272         0       272         0       272         0       272         0       272         0
dram[1]:          0         0         0         0       272       272         0         0         0         0         0         0         0         0         0         0
dram[2]:          0         0         0         0       272       272         0       272         0       272         0       279         0       289         0       293
dram[3]:          0         0         0         0       272       272         0         0         0         0         0         0         0         0         0         0
dram[4]:          0         0         0         0       272       272       275         0       272         0       272         0       272         0       272         0
dram[5]:          0         0         0         0       272       272         0         0         0         0         0         0         0         0         0         0
Memory Partition 0: 
Cache L2_bank_000:
MSHR contents

Cache L2_bank_001:
MSHR contents

In Dram Latency Queue (total = 0): 
DRAM[0]: 16 bks, busW=4 BL=8 CL=12, tRRD=2 tCCD=6, tRCD=12 tRAS=28 tRP=12 tRC=40
n_cmd=65599 n_nop=65368 n_act=11 n_pre=2 n_req=109 n_rd=218 n_write=0 bw_util=0.006646
n_activity=1821 dram_eff=0.2394
bk0: 10a 65519i bk1: 8a 65568i bk2: 0a 65599i bk3: 0a 65599i bk4: 20a 65547i bk5: 20a 65546i bk6: 32a 65519i bk7: 0a 65596i bk8: 32a 65521i bk9: 0a 65596i bk10: 32a 65523i bk11: 0a 65600i bk12: 32a 65525i bk13: 0a 65600i bk14: 32a 65523i bk15: 0a 65598i 
dram_util_bins: 0 0 0 0 0 0 0 0 0 0
dram_eff_bins: 0 0 0 0 0 0 0 0 0 0
mrqq: max=0 avg=0
Memory Partition 1: 
Cache L2_bank_002:
MSHR contents

Cache L2_bank_003:
MSHR contents

In Dram Latency Queue (total = 0): 
DRAM[1]: 16 bks, busW=4 BL=8 CL=12, tRRD=2 tCCD=6, tRCD=12 tRAS=28 tRP=12 tRC=40
n_cmd=65599 n_nop=65539 n_act=4 n_pre=0 n_req=28 n_rd=56 n_write=0 bw_util=0.001707
n_activity=471 dram_eff=0.2378
bk0: 8a 65571i bk1: 8a 65571i bk2: 0a 65598i bk3: 0a 65599i bk4: 20a 65544i bk5: 20a 65547i bk6: 0a 65598i bk7: 0a 65598i bk8: 0a 65599i bk9: 0a 65599i bk10: 0a 65599i bk11: 0a 65599i bk12: 0a 65599i bk13: 0a 65599i bk14: 0a 65599i bk15: 0a 65599i 
dram_util_bins: 0 0 0 0 0 0 0 0 0 0
dram_eff_bins: 0 0 0 0 0 0 0 0 0 0
mrqq: max=0 avg=0
Memory Partition 2: 
Cache L2_bank_004:
MSHR contents

Cache L2_bank_005:
MSHR contents

In Dram Latency Queue (total = 0): 
DRAM[2]: 16 bks, busW=4 BL=8 CL=12, tRRD=2 tCCD=6, tRCD=12 tRAS=28 tRP=12 tRC=40
n_cmd=65599 n_nop=65370 n_act=9 n_pre=0 n_req=110 n_rd=220 n_write=0 bw_util=0.006707
n_activity=1737 dram_eff=0.2533
bk0: 8a 65570i bk1: 8a 65570i bk2: 0a 65597i bk3: 0a 65597i bk4: 20a 65543i bk5: 24a 65538i bk6: 0a 65598i bk7: 32a 65521i bk8: 0a 65597i bk9: 32a 65522i bk10: 0a 65600i bk11: 32a 65526i bk12: 0a 65601i bk13: 32a 65524i bk14: 0a 65599i bk15: 32a 65524i 
dram_util_bins: 0 0 0 0 0 0 0 0 0 0
dram_eff_bins: 0 0 0 0 0 0 0 0 0 0
mrqq: max=1 avg=0.000121953
Memory Partition 3: 
Cache L2_bank_006:
MSHR contents

Cache L2_bank_007:
MSHR contents

In Dram Latency Queue (total = 0): 
DRAM[3]: 16 bks, busW=4 BL=8 CL=12, tRRD=2 tCCD=6, tRCD=12 tRAS=28 tRP=12 tRC=40
n_cmd=65599 n_nop=65535 n_act=4 n_pre=0 n_req=30 n_rd=60 n_write=0 bw_util=0.001829
n_activity=515 dram_eff=0.233
bk0: 8a 65572i bk1: 8a 65571i bk2: 0a 65599i bk3: 0a 65600i bk4: 20a 65547i bk5: 24a 65538i bk6: 0a 65596i bk7: 0a 65597i bk8: 0a 65598i bk9: 0a 65599i bk10: 0a 65599i bk11: 0a 65599i bk12: 0a 65599i bk13: 0a 65600i bk14: 0a 65600i bk15: 0a 65600i 
dram_util_bins: 0 0 0 0 0 0 0 0 0 0
dram_eff_bins: 0 0 0 0 0 0 0 0 0 0
mrqq: max=0 avg=0
Memory Partition 4: 
Cache L2_bank_008:
MSHR contents

Cache L2_bank_009:
MSHR contents

In Dram Latency Queue (total = 0): 
DRAM[4]: 16 bks, busW=4 BL=8 CL=12, tRRD=2 tCCD=6, tRCD=12 tRAS=28 tRP=12 tRC=40
n_cmd=65599 n_nop=65370 n_act=9 n_pre=0 n_req=110 n_rd=220 n_write=0 bw_util=0.006707
n_activity=1754 dram_eff=0.2509
bk0: 8a 65571i bk1: 8a 65570i bk2: 0a 65597i bk3: 0a 65599i bk4: 20a 65547i bk5: 24a 65535i bk6: 32a 65520i bk7: 0a 65596i bk8: 32a 65521i bk9: 0a 65598i bk10: 32a 65524i bk11: 0a 65600i bk12: 32a 65524i bk13: 0a 65600i bk14: 32a 65524i bk15: 0a 65599i 
dram_util_bins: 0 0 0 0 0 0 0 0 0 0
dram_eff_bins: 0 0 0 0 0 0 0 0 0 0
mrqq: max=1 avg=6.09765e-05
Memory Partition 5: 
Cache L2_bank_010:
MSHR contents

Cache L2_bank_011:
MSHR contents

In Dram Latency Queue (total = 0): 
DRAM[5]: 16 bks, busW=4 BL=8 CL=12, tRRD=2 tCCD=6, tRCD=12 tRAS=28 tRP=12 tRC=40
n_cmd=65599 n_nop=65535 n_act=4 n_pre=0 n_req=30 n_rd=60 n_write=0 bw_util=0.001829
n_activity=517 dram_eff=0.2321
bk0: 8a 65572i bk1: 8a 65571i bk2: 0a 65599i bk3: 0a 65600i bk4: 20a 65547i bk5: 24a 65537i bk6: 0a 65596i bk7: 0a 65596i bk8: 0a 65597i bk9: 0a 65599i bk10: 0a 65599i bk11: 0a 65600i bk12: 0a 65600i bk13: 0a 65600i bk14: 0a 65600i bk15: 0a 65600i 
dram_util_bins: 0 0 0 0 0 0 0 0 0 0
dram_eff_bins: 0 0 0 0 0 0 0 0 0 0
mrqq: max=0 avg=0

========= L2 cache stats =========
L2_cache_bank[0]: Access = 322, Miss = 95, Miss_rate = 0.295, Pending_hits = 8, Reservation_fails = 85
L2_cache_bank[1]: Access = 72, Miss = 14, Miss_rate = 0.194, Pending_hits = 13, Reservation_fails = 95
L2_cache_bank[2]: Access = 72, Miss = 14, Miss_rate = 0.194, Pending_hits = 13, Reservation_fails = 97
L2_cache_bank[3]: Access = 72, Miss = 14, Miss_rate = 0.194, Pending_hits = 16, Reservation_fails = 190
L2_cache_bank[4]: Access = 72, Miss = 14, Miss_rate = 0.194, Pending_hits = 10, Reservation_fails = 0
L2_cache_bank[5]: Access = 354, Miss = 96, Miss_rate = 0.271, Pending_hits = 12, Reservation_fails = 190
L2_cache_bank[6]: Access = 72, Miss = 14, Miss_rate = 0.194, Pending_hits = 10, Reservation_fails = 0
L2_cache_bank[7]: Access = 104, Miss = 16, Miss_rate = 0.154, Pending_hits = 18, Reservation_fails = 190
L2_cache_bank[8]: Access = 307, Miss = 94, Miss_rate = 0.306, Pending_hits = 8, Reservation_fails = 32
L2_cache_bank[9]: Access = 104, Miss = 16, Miss_rate = 0.154, Pending_hits = 18, Reservation_fails = 190
L2_cache_bank[10]: Access = 72, Miss = 14, Miss_rate = 0.194, Pending_hits = 10, Reservation_fails = 0
L2_cache_bank[11]: Access = 104, Miss = 16, Miss_rate = 0.154, Pending_hits = 18, Reservation_fails = 190
L2_total_cache_accesses = 1727
L2_total_cache_misses = 417
L2_total_cache_miss_rate = 0.2415
[...]
gpgpu_stall_shd_mem[gl_mem][coal_stall] = 258555
gpgpu_stall_shd_mem[gl_mem][data_port_stall] = 0
gpgpu_stall_shd_mem[g_mem_ld][mshr_rc] = 0
gpgpu_stall_shd_mem[g_mem_ld][icnt_rc] = 0
gpgpu_stall_shd_mem[g_mem_ld][wb_icnt_rc] = 0
gpgpu_stall_shd_mem[g_mem_ld][wb_rsrv_fail] = 0
gpgpu_stall_shd_mem[g_mem_st][mshr_rc] = 0
gpgpu_stall_shd_mem[g_mem_st][icnt_rc] = 0
gpgpu_stall_shd_mem[g_mem_st][wb_icnt_rc] = 0
gpgpu_stall_shd_mem[g_mem_st][wb_rsrv_fail] = 0
gpgpu_stall_shd_mem[l_mem_ld][mshr_rc] = 0
gpgpu_stall_shd_mem[l_mem_ld][icnt_rc] = 0
gpgpu_stall_shd_mem[l_mem_ld][wb_icnt_rc] = 0
gpgpu_stall_shd_mem[l_mem_ld][wb_rsrv_fail] = 0
gpgpu_stall_shd_mem[l_mem_st][mshr_rc] = 0
gpgpu_stall_shd_mem[l_mem_st][icnt_rc] = 0
gpgpu_stall_shd_mem[l_mem_ld][wb_icnt_rc] = 0
gpgpu_stall_shd_mem[l_mem_ld][wb_rsrv_fail] = 0
gpu_reg_bank_conflict_stalls = 0
Warp Occupancy Distribution:
Stall:565973	W0_Idle:5503938	W0_Scoreboard:3303617	W1:6032	W2:5648	W3:5264	W4:4880	W5:4496	W6:4112	W7:3728	W8:3344	W9:2960	W10:2576	W11:2192	W12:1808	W13:1424	W14:1040	W15:592	W16:486144	W17:0	W18:0	W19:0	W20:0	W21:0	W22:0	W23:0	W24:0	W25:0	W26:0	W27:0	W28:0	W29:0	W30:0	W31:0	W32:994280
traffic_breakdown_coretomem[CONST_ACC_R] = 120 {8:15,}
traffic_breakdown_coretomem[GLOBAL_ACC_R] = 521208 {8:65151,}
traffic_breakdown_coretomem[GLOBAL_ACC_W] = 1713600 {72:23800,}
traffic_breakdown_coretomem[INST_ACC_R] = 39048 {8:4881,}
traffic_breakdown_memtocore[CONST_ACC_R] = 1080 {72:15,}
traffic_breakdown_memtocore[GLOBAL_ACC_R] = 4728056 {72:64570,136:581,}
traffic_breakdown_memtocore[GLOBAL_ACC_W] = 190400 {8:23800,}
traffic_breakdown_memtocore[INST_ACC_R] = 663816 {136:4881,}
maxmrqlatency = 190 
maxdqlatency = 0 
maxmflatency = 1002 
averagemflatency = 257 
max_icnt2mem_latency = 1037 
max_icnt2sh_latency = 949969 
mrq_lat_table:1771 	78 	36 	80 	38 	33 	45 	22 	0 	0 	0 	0 	0 	0 	0 	0 	0 	0 	0 	0 	0 	0 	0 	0 	0 	0 	0 	0 	0 	0 	0 	0 	
dq_lat_table:0 	0 	0 	0 	0 	0 	0 	0 	0 	0 	0 	0 	0 	0 	0 	0 	0 	0 	0 	0 	0 	0 	0 	0 	0 	0 	0 	0 	0 	0 	0 	0 	
mf_lat_table:0 	0 	0 	0 	0 	0 	0 	58328 	21649 	8989 	0 	0 	0 	0 	0 	0 	0 	0 	0 	0 	0 	0 	0 	0 	0 	0 	0 	0 	0 	0 	0 	0 	
icnt2mem_lat_table:0 	0 	0 	48017 	13011 	9768 	5864 	5614 	10449 	1123 	1 	0 	0 	0 	0 	0 	0 	0 	0 	0 	0 	0 	0 	0 	
icnt2sh_lat_table:0 	0 	0 	19853 	32003 	12891 	419 	0 	0 	0 	0 	0 	0 	0 	15 	430 	3650 	6707 	9770 	3228 	0 	0 	0 	0 	
mf_lat_pw_table:0 	0 	0 	0 	0 	0 	0 	679 	70 	12 	0 	0 	0 	0 	0 	0 	0 	0 	0 	0 	0 	0 	0 	0 	0 	0 	0 	0 	0 	0 	0 	0 	
maximum concurrent accesses to same row:
dram[0]:         1         0         0         0         0         0         0         0         0         0         0         0         0         0         0         0 
dram[1]:         0         0         0         0         0         0         0         0         0         0         0         0         0         0         0         0 
dram[2]:         0         0         0         0         0         0         0         0         0         0         0         0         0         0         0         0 
dram[3]:         0         0         0         0         0         0         0         0         0         0         0         0         0         0         0         0 
dram[4]:         0         0         0         0         0         0         0         0         0         0         0         0         0         0         0         0 
dram[5]:         0         0         0         0         0         0         0         0         0         0         0         0         0         0         0         0 
maximum service time to same row:
dram[0]:       626     25733         0         0      1444      3430      8754      3990      9717      4091      9738      6778      9780      8269      9762     10428 
dram[1]:      2345     26474         0         0      2920      3400      4068      4001      4450      4093      7129      6754      8231      8647      9790     10496 
dram[2]:      4686     27218         0         0      2968       853      3992      9342      4093      9730      6782      9774      8271      9756     10430      9744 
dram[3]:      7006      6717         0         0      2926      2609      4003      4070      4095      4560      6756      7131      8649      8252     10498      9848 
dram[4]:      7637      8408         0         0      1762      2657      9047      3994      9723      4164      9768      6784      9786      8290      9750     10454 
dram[5]:      8346     11002         0         0      3388      2615      4066      4005      4448      4097      7127      6758      8227      8666      9786     10510 
average row accesses per activate:
dram[0]:  2.333333  4.000000      -nan      -nan 10.000000 10.000000 32.000000 32.000000 32.000000 32.000000 32.000000 32.000000 32.000000 32.000000 32.000000 32.000000 
dram[1]:  6.000000  4.000000      -nan      -nan 10.000000 10.000000 32.000000 32.000000 32.000000 32.000000 32.000000 32.000000 32.000000 32.000000 32.000000 32.000000 
dram[2]:  6.000000  4.000000      -nan      -nan 10.000000 12.000000 32.000000 32.000000 32.000000 32.000000 32.000000 32.000000 32.000000 32.000000 32.000000 32.000000 
dram[3]:  4.000000  4.000000      -nan      -nan 10.000000 12.000000 32.000000 32.000000 32.000000 32.000000 32.000000 32.000000 32.000000 32.000000 32.000000 32.000000 
dram[4]:  4.000000  4.000000      -nan      -nan 10.000000 12.000000 32.000000 32.000000 32.000000 32.000000 32.000000 32.000000 32.000000 32.000000 32.000000 32.000000 
dram[5]:  4.000000  4.000000      -nan      -nan 10.000000 12.000000 32.000000 32.000000 32.000000 32.000000 32.000000 32.000000 32.000000 32.000000 32.000000 32.000000 
average row locality = 2103/86 = 24.453489
number of total memory accesses made:
dram[0]:         0         0         0         0         0         0         0         0         0         0         0         0         0         0         0         0 
dram[1]:         0         0         0         0         0         0         0         0         0         0         0         0         0         0         0         0 
dram[2]:         0         0         0         0         0         0         0         0         0         0         0         0         0         0         0         0 
dram[3]:         0         0         0         0         0         0         0         0         0         0         0         0         0         0         0         0 
dram[4]:         0         0         0         0         0         0         0         0         0         0         0         0         0         0         0         0 
dram[5]:         0         0         0         0         0         0         0         0         0         0         0         0         0         0         0         0 
total accesses: 0
min_bank_accesses = 0!
min_chip_accesses = 0!
number of total read accesses:
dram[0]:         7         4         0         0        10        10        32        32        32        32        32        32        32        32        32        32 
dram[1]:         6         4         0         0        10        10        32        32        32        32        32        32        32        32        32        32 
dram[2]:         6         4         0         0        10        12        32        32        32        32        32        32        32        32        32        32 
dram[3]:         4         4         0         0        10        12        32        32        32        32        32        32        32        32        32        32 
dram[4]:         4         4         0         0        10        12        32        32        32        32        32        32        32        32        32        32 
dram[5]:         4         4         0         0        10        12        32        32        32        32        32        32        32        32        32        32 
total reads: 2103
min_bank_accesses = 0!
chip skew: 352/350 = 1.01
number of total write accesses:
dram[0]:         0         0         0         0         0         0         0         0         0         0         0         0         0         0         0         0 
dram[1]:         0         0         0         0         0         0         0         0         0         0         0         0         0         0         0         0 
dram[2]:         0         0         0         0         0         0         0         0         0         0         0         0         0         0         0         0 
dram[3]:         0         0         0         0         0         0         0         0         0         0         0         0         0         0         0         0 
dram[4]:         0         0         0         0         0         0         0         0         0         0         0         0         0         0         0         0 
dram[5]:         0         0         0         0         0         0         0         0         0         0         0         0         0         0         0         0 
total reads: 0
min_bank_accesses = 0!
min_chip_accesses = 0!
average mf latency per bank:
dram[0]:        322         0    none      none        8779      7884     12285      9552     17934     11474     16074     11054     11568     10941      8130     10654
dram[1]:          0         0    none      none        8277      7695      9638      9884     11292     10765     13530     10717     13983      9826     11147      9530
dram[2]:          0         0    none      none        7988      8934      9405     12238     10741     17738     11056     16004     10616     11883     10593      8693
dram[3]:          0         0    none      none        7950      8916      9444      9813     10895     10863     10961     12790     10025     13213      9611     10625
dram[4]:          0         0    none      none        7908      9096     11717      9483     17173     11054     14718     10507     10226     10715      7834     10576
dram[5]:          0         0    none      none        8258      8774      9272     10001     11123     11051     13201     10807     13970      9938     11093      9740
maximum mf latency per bank:
dram[0]:        285         0         0         0       770       547       996       715      1002       714       984       738       820       758       681       807
dram[1]:          0         0         0         0       514       580       737       779       803       746       858       575       866       399       839       320
dram[2]:          0         0         0         0       553       812       636       974       665       987       681       950       671       773       732       707
dram[3]:          0         0         0         0       541       622       639       741       654       738       733       803       468       813       330       789
dram[4]:          0         0         0         0       670       649       980       728       984       752       896       633       752       663       626       659
dram[5]:          0         0         0         0       547       639       730       721       766       737       810       586       837       399       794       367
Memory Partition 0: 
Cache L2_bank_000:
MSHR contents

Cache L2_bank_001:
MSHR contents

In Dram Latency Queue (total = 0): 
DRAM[0]: 16 bks, busW=4 BL=8 CL=12, tRRD=2 tCCD=6, tRCD=12 tRAS=28 tRP=12 tRC=40
n_cmd=949970 n_nop=949250 n_act=16 n_pre=2 n_req=351 n_rd=702 n_write=0 bw_util=0.001478
n_activity=4651 dram_eff=0.3019
bk0: 14a 949880i bk1: 8a 949937i bk2: 0a 949968i bk3: 0a 949969i bk4: 20a 949917i bk5: 20a 949917i bk6: 64a 949810i bk7: 64a 949698i bk8: 64a 949810i bk9: 64a 949793i bk10: 64a 949830i bk11: 64a 949810i bk12: 64a 949829i bk13: 64a 949814i bk14: 64a 949803i bk15: 64a 949817i 
dram_util_bins: 0 0 0 0 0 0 0 0 0 0
dram_eff_bins: 0 0 0 0 0 0 0 0 0 0
mrqq: max=7 avg=0.000806341
Memory Partition 1: 
Cache L2_bank_002:
MSHR contents

Cache L2_bank_003:
MSHR contents

In Dram Latency Queue (total = 0): 
DRAM[1]: 16 bks, busW=4 BL=8 CL=12, tRRD=2 tCCD=6, tRCD=12 tRAS=28 tRP=12 tRC=40
n_cmd=949970 n_nop=949256 n_act=14 n_pre=0 n_req=350 n_rd=700 n_write=0 bw_util=0.001474
n_activity=3863 dram_eff=0.3624
bk0: 12a 949929i bk1: 8a 949938i bk2: 0a 949967i bk3: 0a 949969i bk4: 20a 949916i bk5: 20a 949920i bk6: 64a 949768i bk7: 64a 949603i bk8: 64a 949821i bk9: 64a 949767i bk10: 64a 949813i bk11: 64a 949778i bk12: 64a 949814i bk13: 64a 949797i bk14: 64a 949810i bk15: 64a 949800i 
dram_util_bins: 0 0 0 0 0 0 0 0 0 0
dram_eff_bins: 0 0 0 0 0 0 0 0 0 0
mrqq: max=16 avg=0.00302957
Memory Partition 2: 
Cache L2_bank_004:
MSHR contents

Cache L2_bank_005:
MSHR contents

In Dram Latency Queue (total = 0): 
DRAM[2]: 16 bks, busW=4 BL=8 CL=12, tRRD=2 tCCD=6, tRCD=12 tRAS=28 tRP=12 tRC=40
n_cmd=949970 n_nop=949252 n_act=14 n_pre=0 n_req=352 n_rd=704 n_write=0 bw_util=0.001482
n_activity=4518 dram_eff=0.3116
bk0: 12a 949931i bk1: 8a 949939i bk2: 0a 949966i bk3: 0a 949967i bk4: 20a 949913i bk5: 24a 949910i bk6: 64a 949802i bk7: 64a 949721i bk8: 64a 949821i bk9: 64a 949804i bk10: 64a 949810i bk11: 64a 949826i bk12: 64a 949826i bk13: 64a 949814i bk14: 64a 949823i bk15: 64a 949802i 
dram_util_bins: 0 0 0 0 0 0 0 0 0 0
dram_eff_bins: 0 0 0 0 0 0 0 0 0 0
mrqq: max=9 avg=0.000935819
Memory Partition 3: 
Cache L2_bank_006:
MSHR contents

Cache L2_bank_007:
MSHR contents

In Dram Latency Queue (total = 0): 
DRAM[3]: 16 bks, busW=4 BL=8 CL=12, tRRD=2 tCCD=6, tRCD=12 tRAS=28 tRP=12 tRC=40
n_cmd=949970 n_nop=949256 n_act=14 n_pre=0 n_req=350 n_rd=700 n_write=0 bw_util=0.001474
n_activity=3938 dram_eff=0.3555
bk0: 8a 949937i bk1: 8a 949939i bk2: 0a 949969i bk3: 0a 949970i bk4: 20a 949920i bk5: 24a 949914i bk6: 64a 949753i bk7: 64a 949651i bk8: 64a 949801i bk9: 64a 949780i bk10: 64a 949808i bk11: 64a 949798i bk12: 64a 949813i bk13: 64a 949788i bk14: 64a 949811i bk15: 64a 949802i 
dram_util_bins: 0 0 0 0 0 0 0 0 0 0
dram_eff_bins: 0 0 0 0 0 0 0 0 0 0
mrqq: max=16 avg=0.00315273
Memory Partition 4: 
Cache L2_bank_008:
MSHR contents

Cache L2_bank_009:
MSHR contents

In Dram Latency Queue (total = 0): 
DRAM[4]: 16 bks, busW=4 BL=8 CL=12, tRRD=2 tCCD=6, tRCD=12 tRAS=28 tRP=12 tRC=40
n_cmd=949970 n_nop=949256 n_act=14 n_pre=0 n_req=350 n_rd=700 n_write=0 bw_util=0.001474
n_activity=4515 dram_eff=0.3101
bk0: 8a 949940i bk1: 8a 949939i bk2: 0a 949966i bk3: 0a 949969i bk4: 20a 949918i bk5: 24a 949906i bk6: 64a 949814i bk7: 64a 949716i bk8: 64a 949810i bk9: 64a 949828i bk10: 64a 949830i bk11: 64a 949808i bk12: 64a 949827i bk13: 64a 949806i bk14: 64a 949801i bk15: 64a 949815i 
dram_util_bins: 0 0 0 0 0 0 0 0 0 0
dram_eff_bins: 0 0 0 0 0 0 0 0 0 0
mrqq: max=7 avg=0.000676863
Memory Partition 5: 
Cache L2_bank_010:
MSHR contents

Cache L2_bank_011:
MSHR contents

In Dram Latency Queue (total = 0): 
DRAM[5]: 16 bks, busW=4 BL=8 CL=12, tRRD=2 tCCD=6, tRCD=12 tRAS=28 tRP=12 tRC=40
n_cmd=949970 n_nop=949256 n_act=14 n_pre=0 n_req=350 n_rd=700 n_write=0 bw_util=0.001474
n_activity=3937 dram_eff=0.3556
bk0: 8a 949939i bk1: 8a 949940i bk2: 0a 949968i bk3: 0a 949970i bk4: 20a 949917i bk5: 24a 949908i bk6: 64a 949774i bk7: 64a 949609i bk8: 64a 949819i bk9: 64a 949791i bk10: 64a 949819i bk11: 64a 949787i bk12: 64a 949817i bk13: 64a 949805i bk14: 64a 949800i bk15: 64a 949794i 
dram_util_bins: 0 0 0 0 0 0 0 0 0 0
dram_eff_bins: 0 0 0 0 0 0 0 0 0 0
mrqq: max=16 avg=0.00303799

========= L2 cache stats =========
L2_cache_bank[0]: Access = 6739, Miss = 177, Miss_rate = 0.026, Pending_hits = 37, Reservation_fails = 266
L2_cache_bank[1]: Access = 8172, Miss = 174, Miss_rate = 0.021, Pending_hits = 55, Reservation_fails = 95
L2_cache_bank[2]: Access = 7748, Miss = 176, Miss_rate = 0.023, Pending_hits = 56, Reservation_fails = 97
L2_cache_bank[3]: Access = 8506, Miss = 174, Miss_rate = 0.020, Pending_hits = 45, Reservation_fails = 190
L2_cache_bank[4]: Access = 8420, Miss = 176, Miss_rate = 0.021, Pending_hits = 55, Reservation_fails = 56
L2_cache_bank[5]: Access = 6753, Miss = 176, Miss_rate = 0.026, Pending_hits = 37, Reservation_fails = 190
L2_cache_bank[6]: Access = 8487, Miss = 174, Miss_rate = 0.021, Pending_hits = 35, Reservation_fails = 0
L2_cache_bank[7]: Access = 7782, Miss = 176, Miss_rate = 0.023, Pending_hits = 73, Reservation_fails = 190
L2_cache_bank[8]: Access = 6476, Miss = 174, Miss_rate = 0.027, Pending_hits = 31, Reservation_fails = 32
L2_cache_bank[9]: Access = 8460, Miss = 176, Miss_rate = 0.021, Pending_hits = 60, Reservation_fails = 190
L2_cache_bank[10]: Access = 7500, Miss = 174, Miss_rate = 0.023, Pending_hits = 51, Reservation_fails = 0
L2_cache_bank[11]: Access = 8804, Miss = 176, Miss_rate = 0.020, Pending_hits = 44, Reservation_fails = 190
L2_total_cache_accesses = 93847
L2_total_cache_misses = 2103
L2_total_cache_miss_rate = 0.0224
L2_total_cache_pending_hits = 579
L2_total_cache_reservation_fails = 1496
L2_total_cache_breakdown:
	L2_cache_stats_breakdown[GLOBAL_ACC_R][HIT] = 62577
	L2_cache_stats_breakdown[GLOBAL_ACC_R][HIT_RESERVED] = 526
	L2_cache_stats_breakdown[GLOBAL_ACC_R][MISS] = 2048
	L2_cache_stats_breakdown[CONST_ACC_R][HIT] = 14
	L2_cache_stats_breakdown[CONST_ACC_R][MISS] = 1
	L2_cache_stats_breakdown[GLOBAL_ACC_W][HIT] = 23800
	L2_cache_stats_breakdown[INST_ACC_R][HIT] = 4774
	L2_cache_stats_breakdown[INST_ACC_R][HIT_RESERVED] = 53
	L2_cache_stats_breakdown[INST_ACC_R][MISS] = 54
	L2_cache_stats_breakdown[INST_ACC_R][RESERVATION_FAIL] = 1496
L2_cache_data_port_util = 0.017
L2_cache_fill_port_util = 0.001

icnt_total_pkts_mem_to_simt=244865
icnt_total_pkts_simt_to_mem=141447
LD_mem_lat_dist  0 0 0 0 0 0 0 0 0 0 0 0 0 0 0 0 0 0 0 0 0 0 0 0 0 0 0
ST_mem_lat_dist  0 0 0 0 0 0 0 0 0 0 0 0 0 0 0 0 0 0 0 0 0 0 0 0 0 0 0
----------------------------Interconnect-DETAILS--------------------------------
Class 0:
Packet latency average = 7.35417
	minimum = 6
	maximum = 10
Network latency average = 7.35417
	minimum = 6
	maximum = 10
Slowest packet = 187599
Flit latency average = 6
	minimum = 6
	maximum = 6
Slowest flit = 386086
Fragmentation average = 0
	minimum = 0
	maximum = 0
Injected packet rate average = 0.000154328
	minimum = 0 (at node 0)
	maximum = 0.00208342 (at node 13)
Accepted packet rate average = 0.000154328
	minimum = 0 (at node 0)
	maximum = 0.00208342 (at node 13)
Injected flit rate average = 0.000363313
	minimum = 0 (at node 0)
	maximum = 0.00338556 (at node 13)
Accepted flit rate average= 0.000363313
	minimum = 0 (at node 0)
	maximum = 0.00642389 (at node 13)
Injected packet length average = 2.35417
Accepted packet length average = 2.35417
Total in-flight flits = 0 (0 measured)
====== Overall Traffic Statistics ======
====== Traffic class 0 ======
Packet latency average = 17.1137 (46 samples)
	minimum = 6 (46 samples)
	maximum = 147.326 (46 samples)
Network latency average = 12.9141 (46 samples)
	minimum = 6 (46 samples)
	maximum = 101.239 (46 samples)
Flit latency average = 9.99953 (46 samples)
	minimum = 6 (46 samples)
	maximum = 99.5435 (46 samples)
Fragmentation average = 0.00499084 (46 samples)
	minimum = 0 (46 samples)
	maximum = 26.1739 (46 samples)
Injected packet rate average = 0.0190558 (46 samples)
	minimum = 0.0058131 (46 samples)
	maximum = 0.040298 (46 samples)
Accepted packet rate average = 0.0190558 (46 samples)
	minimum = 0.0058131 (46 samples)
	maximum = 0.040298 (46 samples)
Injected flit rate average = 0.0386142 (46 samples)
	minimum = 0.00875635 (46 samples)
	maximum = 0.106546 (46 samples)
Accepted flit rate average = 0.0386142 (46 samples)
	minimum = 0.010522 (46 samples)
	maximum = 0.0688385 (46 samples)
Injected packet size average = 2.02637 (46 samples)
Accepted packet size average = 2.02637 (46 samples)
Hops average = 1 (46 samples)
----------------------------END-of-Interconnect-DETAILS-------------------------


gpgpu_simulation_time = 0 days, 0 hrs, 9 min, 40 sec (580 sec)
gpgpu_simulation_rate = 68544 (inst/sec)
gpgpu_simulation_rate = 1637 (cycle/sec)
Time consumed(ms): 579386.500000
After LUD
>>>Verify<<<<
