

        *** GPGPU-Sim Simulator Version 3.2.2  [build 0] ***


GPGPU-Sim PTX: simulation mode 0 (can change with PTX_SIM_MODE_FUNC environment variable:
               1=functional simulation only, 0=detailed performance simulator)
GPGPU-Sim: Configuration options:

-network_mode                           1 # Interconnection network mode
-inter_config_file   config_fermi_islip.icnt # Interconnection network config file
-gpgpu_ptx_use_cuobjdump                    1 # Use cuobjdump to extract ptx and sass from binaries
-gpgpu_experimental_lib_support                    0 # Try to extract code from cuda libraries [Broken because of unknown cudaGetExportTable]
-gpgpu_ptx_convert_to_ptxplus                    0 # Convert SASS (native ISA) to ptxplus and run ptxplus
-gpgpu_ptx_force_max_capability                   20 # Force maximum compute capability
-gpgpu_ptx_inst_debug_to_file                    0 # Dump executed instructions' debug information to file
-gpgpu_ptx_inst_debug_file       inst_debug.txt # Executed instructions' debug output file
-gpgpu_ptx_inst_debug_thread_uid                    1 # Thread UID for executed instructions' debug output
-gpgpu_simd_model                       1 # 1 = post-dominator
-gpgpu_shader_core_pipeline              1536:32 # shader core pipeline config, i.e., {<nthread>:<warpsize>}
-gpgpu_tex_cache:l1  4:128:24,L:R:m:N:L,F:128:4,128:2 # per-shader L1 texture cache  (READ-ONLY) config  {<nsets>:<bsize>:<assoc>,<rep>:<wr>:<alloc>:<wr_alloc>,<mshr>:<N>:<merge>,<mq>:<rf>}
-gpgpu_const_cache:l1 64:64:2,L:R:f:N:L,A:2:32,4 # per-shader L1 constant memory cache  (READ-ONLY) config  {<nsets>:<bsize>:<assoc>,<rep>:<wr>:<alloc>:<wr_alloc>,<mshr>:<N>:<merge>,<mq>} 
-gpgpu_cache:il1     4:128:4,L:R:f:N:L,A:2:32,4 # shader L1 instruction cache config  {<nsets>:<bsize>:<assoc>,<rep>:<wr>:<alloc>:<wr_alloc>,<mshr>:<N>:<merge>,<mq>} 
-gpgpu_cache:dl1     32:128:4,L:L:m:N:H,A:32:8,8 # per-shader L1 data cache config  {<nsets>:<bsize>:<assoc>,<rep>:<wr>:<alloc>:<wr_alloc>,<mshr>:<N>:<merge>,<mq> | none}
-gpgpu_cache:dl1PrefL1                 none # per-shader L1 data cache config  {<nsets>:<bsize>:<assoc>,<rep>:<wr>:<alloc>:<wr_alloc>,<mshr>:<N>:<merge>,<mq> | none}
-gpgpu_cache:dl1PreShared                 none # per-shader L1 data cache config  {<nsets>:<bsize>:<assoc>,<rep>:<wr>:<alloc>:<wr_alloc>,<mshr>:<N>:<merge>,<mq> | none}
-gmem_skip_L1D                          0 # global memory access skip L1D cache (implements -Xptxas -dlcm=cg, default=no skip)
-gpgpu_perfect_mem                      0 # enable perfect memory mode (no cache miss)
-n_regfile_gating_group                    4 # group of lanes that should be read/written together)
-gpgpu_clock_gated_reg_file                    0 # enable clock gated reg file for power calculations
-gpgpu_clock_gated_lanes                    0 # enable clock gated lanes for power calculations
-gpgpu_shader_registers                32768 # Number of registers per shader core. Limits number of concurrent CTAs. (default 8192)
-gpgpu_shader_cta                       8 # Maximum number of concurrent CTAs in shader (default 8)
-gpgpu_num_cta_barriers                   16 # Maximum number of named barriers per CTA (default 16)
-gpgpu_n_clusters                      15 # number of processing clusters
-gpgpu_n_cores_per_cluster                    1 # number of simd cores per cluster
-gpgpu_n_cluster_ejection_buffer_size                    8 # number of packets in ejection buffer
-gpgpu_n_ldst_response_buffer_size                    2 # number of response packets in ld/st unit ejection buffer
-gpgpu_shmem_size                   16384 # Size of shared memory per shader core (default 16kB)
-gpgpu_shmem_size                   49152 # Size of shared memory per shader core (default 16kB)
-gpgpu_shmem_size_PrefL1                16384 # Size of shared memory per shader core (default 16kB)
-gpgpu_shmem_size_PrefShared                16384 # Size of shared memory per shader core (default 16kB)
-gpgpu_shmem_num_banks                   32 # Number of banks in the shared memory in each shader core (default 16)
-gpgpu_shmem_limited_broadcast                    0 # Limit shared memory to do one broadcast per cycle (default on)
-gpgpu_shmem_warp_parts                    1 # Number of portions a warp is divided into for shared memory bank conflict check 
-gpgpu_warpdistro_shader                   -1 # Specify which shader core to collect the warp size distribution from
-gpgpu_warp_issue_shader                    0 # Specify which shader core to collect the warp issue distribution from
-gpgpu_local_mem_map                    1 # Mapping from local memory space address to simulated GPU physical address space (default = enabled)
-gpgpu_num_reg_banks                   16 # Number of register banks (default = 8)
-gpgpu_reg_bank_use_warp_id                    0 # Use warp ID in mapping registers to banks (default = off)
-gpgpu_operand_collector_num_units_sp                    6 # number of collector units (default = 4)
-gpgpu_operand_collector_num_units_sfu                    8 # number of collector units (default = 4)
-gpgpu_operand_collector_num_units_mem                    2 # number of collector units (default = 2)
-gpgpu_operand_collector_num_units_gen                    0 # number of collector units (default = 0)
-gpgpu_operand_collector_num_in_ports_sp                    2 # number of collector unit in ports (default = 1)
-gpgpu_operand_collector_num_in_ports_sfu                    1 # number of collector unit in ports (default = 1)
-gpgpu_operand_collector_num_in_ports_mem                    1 # number of collector unit in ports (default = 1)
-gpgpu_operand_collector_num_in_ports_gen                    0 # number of collector unit in ports (default = 0)
-gpgpu_operand_collector_num_out_ports_sp                    2 # number of collector unit in ports (default = 1)
-gpgpu_operand_collector_num_out_ports_sfu                    1 # number of collector unit in ports (default = 1)
-gpgpu_operand_collector_num_out_ports_mem                    1 # number of collector unit in ports (default = 1)
-gpgpu_operand_collector_num_out_ports_gen                    0 # number of collector unit in ports (default = 0)
-gpgpu_coalesce_arch                   13 # Coalescing arch (default = 13, anything else is off for now)
-gpgpu_num_sched_per_core                    2 # Number of warp schedulers per core
-gpgpu_max_insn_issue_per_warp                    1 # Max number of instructions that can be issued per warp in one cycle by scheduler
-gpgpu_simt_core_sim_order                    1 # Select the simulation order of cores in a cluster (0=Fix, 1=Round-Robin)
-gpgpu_pipeline_widths        2,1,1,2,1,1,2 # Pipeline widths ID_OC_SP,ID_OC_SFU,ID_OC_MEM,OC_EX_SP,OC_EX_SFU,OC_EX_MEM,EX_WB
-gpgpu_num_sp_units                     2 # Number of SP units (default=1)
-gpgpu_num_sfu_units                    1 # Number of SF units (default=1)
-gpgpu_num_mem_units                    1 # Number if ldst units (default=1) WARNING: not hooked up to anything
-gpgpu_scheduler                      gto # Scheduler configuration: < lrr | gto | two_level_active > If two_level_active:<num_active_warps>:<inner_prioritization>:<outer_prioritization>For complete list of prioritization values see shader.h enum scheduler_prioritization_typeDefault: gto
-gpgpu_dram_scheduler                    1 # 0 = fifo, 1 = FR-FCFS (defaul)
-gpgpu_dram_partition_queues              8:8:8:8 # i2$:$2d:d2$:$2i
-l2_ideal                               0 # Use a ideal L2 cache that always hit
-gpgpu_cache:dl2     64:128:8,L:B:m:W:L,A:32:4,4:0,32 # unified banked L2 data cache config  {<nsets>:<bsize>:<assoc>,<rep>:<wr>:<alloc>:<wr_alloc>,<mshr>:<N>:<merge>,<mq>}
-gpgpu_cache:dl2_texture_only                    0 # L2 cache used for texture only
-gpgpu_n_mem                            6 # number of memory modules (e.g. memory controllers) in gpu
-gpgpu_n_sub_partition_per_mchannel                    2 # number of memory subpartition in each memory module
-gpgpu_n_mem_per_ctrlr                    2 # number of memory chips per memory controller
-gpgpu_memlatency_stat                   14 # track and display latency statistics 0x2 enables MC, 0x4 enables queue logs
-gpgpu_frfcfs_dram_sched_queue_size                   16 # 0 = unlimited (default); # entries per chip
-gpgpu_dram_return_queue_size                   84 # 0 = unlimited (default); # entries per chip
-gpgpu_dram_buswidth                    4 # default = 4 bytes (8 bytes per cycle at DDR)
-gpgpu_dram_burst_length                    8 # Burst length of each DRAM request (default = 4 data bus cycle)
-dram_data_command_freq_ratio                    4 # Frequency ratio between DRAM data bus and command bus (default = 2 times, i.e. DDR)
-gpgpu_dram_timing_opt nbk=16:CCD=2:RRD=6:RCD=12:RAS=28:RP=12:RC=40: CL=12:WL=4:CDLR=5:WR=12:nbkgrp=4:CCDL=3:RTPL=2 # DRAM timing parameters = {nbk:tCCD:tRRD:tRCD:tRAS:tRP:tRC:CL:WL:tCDLR:tWR:nbkgrp:tCCDL:tRTPL}
-rop_latency                          120 # ROP queue latency (default 85)
-dram_latency                         100 # DRAM latency (default 30)
-gpgpu_mem_addr_mapping dramid@8;00000000.00000000.00000000.00000000.0000RRRR.RRRRRRRR.BBBCCCCB.CCSSSSSS # mapping memory address to dram model {dramid@<start bit>;<memory address map>}
-gpgpu_mem_addr_test                    0 # run sweep test to check address mapping for aliased address
-gpgpu_mem_address_mask                    1 # 0 = old addressing mask, 1 = new addressing mask, 2 = new add. mask + flipped bank sel and chip sel bits
-gpuwattch_xml_file  gpuwattch_gtx480.xml # GPUWattch XML file
-power_simulation_enabled                    1 # Turn on power simulator (1=On, 0=Off)
-power_per_cycle_dump                    0 # Dump detailed power output each cycle
-power_trace_enabled                    0 # produce a file for the power trace (1=On, 0=Off)
-power_trace_zlevel                     6 # Compression level of the power trace output log (0=no comp, 9=highest)
-steady_power_levels_enabled                    0 # produce a file for the steady power levels (1=On, 0=Off)
-steady_state_definition                  8:4 # allowed deviation:number of samples
-gpgpu_max_cycle                        0 # terminates gpu simulation early (0 = no limit)
-gpgpu_max_insn                         0 # terminates gpu simulation early (0 = no limit)
-gpgpu_max_cta                          0 # terminates gpu simulation early (0 = no limit)
-gpgpu_runtime_stat                   500 # display runtime statistics such as dram utilization {<freq>:<flag>}
-liveness_message_freq                    1 # Minimum number of seconds between simulation liveness messages (0 = always print)
-gpgpu_flush_l1_cache                    0 # Flush L1 cache at the end of each kernel call
-gpgpu_flush_l2_cache                    0 # Flush L2 cache at the end of each kernel call
-gpgpu_deadlock_detect                    1 # Stop the simulation at deadlock (1=on (default), 0=off)
-gpgpu_ptx_instruction_classification                    0 # if enabled will classify ptx instruction types per kernel (Max 255 kernels now)
-gpgpu_ptx_sim_mode                     0 # Select between Performance (default) or Functional simulation (1)
-gpgpu_clock_domains 700.0:700.0:700.0:700.0 # Clock Domain Frequencies in MhZ {<Core Clock>:<ICNT Clock>:<L2 Clock>:<DRAM Clock>}
-gpgpu_max_concurrent_kernel                    8 # maximum kernels that can run concurrently on GPU
-gpgpu_cflog_interval                    0 # Interval between each snapshot in control flow logger
-visualizer_enabled                     0 # Turn on visualizer output (1=On, 0=Off)
-visualizer_outputfile                 NULL # Specifies the output log file for visualizer
-visualizer_zlevel                      6 # Compression level of the visualizer output log (0=no comp, 9=highest)
-trace_enabled                          0 # Turn on traces
-trace_components                    none # comma seperated list of traces to enable. Complete list found in trace_streams.tup. Default none
-trace_sampling_core                    0 # The core which is printed using CORE_DPRINTF. Default 0
-trace_sampling_memory_partition                   -1 # The memory partition which is printed using MEMPART_DPRINTF. Default -1 (i.e. all)
-enable_ptx_file_line_stats                    1 # Turn on PTX source line statistic profiling. (1 = On)
-ptx_line_stats_filename gpgpu_inst_stats.txt # Output file for PTX source line statistics.
-save_embedded_ptx                      0 # saves ptx files embedded in binary as <n>.ptx
-keep                                   0 # keep intermediate files created by GPGPU-Sim when interfacing with external programs
-gpgpu_ptx_save_converted_ptxplus                    0 # Saved converted ptxplus to a file
-ptx_opcode_latency_int         4,13,4,5,145 # Opcode latencies for integers <ADD,MAX,MUL,MAD,DIV>Default 1,1,19,25,145
-ptx_opcode_latency_fp          4,13,4,5,39 # Opcode latencies for single precision floating points <ADD,MAX,MUL,MAD,DIV>Default 1,1,1,1,30
-ptx_opcode_latency_dp         8,19,8,8,330 # Opcode latencies for double precision floating points <ADD,MAX,MUL,MAD,DIV>Default 8,8,8,8,335
-ptx_opcode_initiation_int            1,2,2,1,8 # Opcode initiation intervals for integers <ADD,MAX,MUL,MAD,DIV>Default 1,1,4,4,32
-ptx_opcode_initiation_fp            1,2,1,1,4 # Opcode initiation intervals for single precision floating points <ADD,MAX,MUL,MAD,DIV>Default 1,1,1,1,5
-ptx_opcode_initiation_dp         8,16,8,8,130 # Opcode initiation intervals for double precision floating points <ADD,MAX,MUL,MAD,DIV>Default 8,8,8,8,130
DRAM Timing Options:
nbk                                    16 # number of banks
CCD                                     2 # column to column delay
RRD                                     6 # minimal delay between activation of rows in different banks
RCD                                    12 # row to column delay
RAS                                    28 # time needed to activate row
RP                                     12 # time needed to precharge (deactivate) row
RC                                     40 # row cycle time
CDLR                                    5 # switching from write to read (changes tWTR)
WR                                     12 # last data-in to row precharge
CL                                     12 # CAS latency
WL                                      4 # Write latency
nbkgrp                                  4 # number of bank groups
CCDL                                    3 # column to column delay between accesses to different bank groups
RTPL                                    2 # read to precharge delay between accesses to different bank groups
Total number of memory sub partition = 12
addr_dec_mask[CHIP]  = 0000000000000000 	high:64 low:0
addr_dec_mask[BK]    = 000000000000e100 	high:16 low:8
addr_dec_mask[ROW]   = 000000000fff0000 	high:28 low:16
addr_dec_mask[COL]   = 0000000000001eff 	high:13 low:0
addr_dec_mask[BURST] = 000000000000003f 	high:6 low:0
sub_partition_id_mask = 0000000000000100
GPGPU-Sim uArch: clock freqs: 700000000.000000:700000000.000000:700000000.000000:700000000.000000
GPGPU-Sim uArch: clock periods: 0.00000000142857142857:0.00000000142857142857:0.00000000142857142857:0.00000000142857142857
*** Initializing Memory Statistics ***
GPGPU-Sim uArch: interconnect node map (shaderID+MemID to icntID)
GPGPU-Sim uArch: Memory nodes ID start from index: 15
GPGPU-Sim uArch:    0   1   2   3   4
GPGPU-Sim uArch:    5   6   7   8   9
GPGPU-Sim uArch:   10  11  12  13  14
GPGPU-Sim uArch:   15  16  17  18  19
GPGPU-Sim uArch:   20  21  22  23  24
GPGPU-Sim uArch:   25  26
GPGPU-Sim uArch: interconnect node reverse map (icntID to shaderID+MemID)
GPGPU-Sim uArch: Memory nodes start from ID: 15
GPGPU-Sim uArch:    0   1   2   3   4
GPGPU-Sim uArch:    5   6   7   8   9
GPGPU-Sim uArch:   10  11  12  13  14
GPGPU-Sim uArch:   15  16  17  18  19
GPGPU-Sim uArch:   20  21  22  23  24
GPGPU-Sim uArch:   25  26
8e21ce17919ae2caa011e67f4f8a5b1e  /home/gpgpu-sim/Documents/Dynamic_GPU_Cache_Bypass_Project/benchmarks/test/lud-rodinia-3.1
GPGPU-Sim uArch: performance model initialization complete.
GPGPU-Sim PTX: __cudaRegisterFatBinary, fat_cubin_handle = 1, filename=lud.cu
self exe links to: /home/gpgpu-sim/Documents/Dynamic_GPU_Cache_Bypass_Project/benchmarks/test/lud-rodinia-3.1
Running md5sum using "md5sum /home/gpgpu-sim/Documents/Dynamic_GPU_Cache_Bypass_Project/benchmarks/test/lud-rodinia-3.1 "
Running cuobjdump using "$CUDA_INSTALL_PATH/bin/cuobjdump -ptx -elf -sass /home/gpgpu-sim/Documents/Dynamic_GPU_Cache_Bypass_Project/benchmarks/test/lud-rodinia-3.1 > _cuobjdump_complete_output_xwSJdv"
Parsing file _cuobjdump_complete_output_xwSJdv
######### cuobjdump parser ########
## Adding new section ELF
Adding arch: sm_30
Adding identifier: lud.cu
## Adding new section PTX
Adding ptx filename: _cuobjdump_1.ptx
Adding arch: sm_30
Adding identifier: lud.cu
## Adding new section ELF
Adding arch: sm_13
Adding identifier: lud.cu
## Adding new section PTX
Adding ptx filename: _cuobjdump_2.ptx
Adding arch: sm_13
Adding identifier: lud.cu
## Adding new section ELF
Adding arch: sm_20
Adding identifier: lud.cu
## Adding new section PTX
Adding ptx filename: _cuobjdump_3.ptx
Adding arch: sm_20
Adding identifier: lud.cu
## Adding new section ELF
Adding arch: sm_10
Adding identifier: lud.cu
## Adding new section PTX
Adding ptx filename: _cuobjdump_4.ptx
Adding arch: sm_10
Adding identifier: lud.cu
## Adding new section ELF
Adding arch: sm_30
Adding identifier: lud_kernel.cu
## Adding new section PTX
Adding ptx filename: _cuobjdump_5.ptx
Adding arch: sm_30
Adding identifier: lud_kernel.cu
## Adding new section ELF
Adding arch: sm_13
Adding identifier: lud_kernel.cu
## Adding new section PTX
Adding ptx filename: _cuobjdump_6.ptx
Adding arch: sm_13
Adding identifier: lud_kernel.cu
## Adding new section ELF
Adding arch: sm_20
Adding identifier: lud_kernel.cu
## Adding new section PTX
Adding ptx filename: _cuobjdump_7.ptx
Adding arch: sm_20
Adding identifier: lud_kernel.cu
## Adding new section ELF
Adding arch: sm_10
Adding identifier: lud_kernel.cu
## Adding new section PTX
Adding ptx filename: _cuobjdump_8.ptx
Adding arch: sm_10
Adding identifier: lud_kernel.cu
Done parsing!!!
GPGPU-Sim PTX: __cudaRegisterFatBinary, fat_cubin_handle = 2, filename=lud_kernel.cu
GPGPU-Sim PTX: __cudaRegisterFunction _Z12lud_internalPfii : hostFun 0x0x401c40, fat_cubin_handle = 2
GPGPU-Sim PTX: allocating shared region for "__cuda_local_var_18130_33_non_const_shadow" from 0x0 to 0x400 (shared memory space)
GPGPU-Sim PTX: instruction assembly for function '_Z12lud_diagonalPfii'...   done.
GPGPU-Sim PTX: finding reconvergence points for '_Z12lud_diagonalPfii'...
GPGPU-Sim PTX: Finding dominators for '_Z12lud_diagonalPfii'...
GPGPU-Sim PTX: Finding immediate dominators for '_Z12lud_diagonalPfii'...
GPGPU-Sim PTX: Finding postdominators for '_Z12lud_diagonalPfii'...
GPGPU-Sim PTX: Finding immediate postdominators for '_Z12lud_diagonalPfii'...
GPGPU-Sim PTX: pre-decoding instructions for '_Z12lud_diagonalPfii'...
GPGPU-Sim PTX: reconvergence points for _Z12lud_diagonalPfii...
GPGPU-Sim PTX:  1 (potential) branch divergence @  PC=0x370 (_2.ptx:170) @%p2 bra BB0_6;
GPGPU-Sim PTX:    immediate post dominator      @  PC=0x468 (_2.ptx:219) bar.sync 0;
GPGPU-Sim PTX:  2 (potential) branch divergence @  PC=0x3a8 (_2.ptx:179) @%p3 bra BB0_5;
GPGPU-Sim PTX:    immediate post dominator      @  PC=0x430 (_2.ptx:206) ld.shared.f32 %f26, [%rl9];
GPGPU-Sim PTX:  3 (potential) branch divergence @  PC=0x428 (_2.ptx:202) @%p4 bra BB0_4;
GPGPU-Sim PTX:    immediate post dominator      @  PC=0x430 (_2.ptx:206) ld.shared.f32 %f26, [%rl9];
GPGPU-Sim PTX:  4 (potential) branch divergence @  PC=0x470 (_2.ptx:221) @!%p1 bra BB0_9;
GPGPU-Sim PTX:    immediate post dominator      @  PC=0x530 (_2.ptx:255) bar.sync 0;
GPGPU-Sim PTX:  5 (potential) branch divergence @  PC=0x528 (_2.ptx:251) @%p5 bra BB0_8;
GPGPU-Sim PTX:    immediate post dominator      @  PC=0x530 (_2.ptx:255) bar.sync 0;
GPGPU-Sim PTX:  6 (potential) branch divergence @  PC=0x570 (_2.ptx:265) @%p6 bra BB0_1;
GPGPU-Sim PTX:    immediate post dominator      @  PC=0x578 (_2.ptx:267) ld.param.u32 %r131, [_Z12lud_diagonalPfii_param_2];
GPGPU-Sim PTX: ... end of reconvergence points for _Z12lud_diagonalPfii
GPGPU-Sim PTX: ... done pre-decoding instructions for '_Z12lud_diagonalPfii'.
GPGPU-Sim PTX: allocating shared region for "__cuda_local_var_18171_33_non_const_dia" from 0x0 to 0x400 (shared memory space)
GPGPU-Sim PTX: allocating shared region for "__cuda_local_var_18172_33_non_const_peri_row" from 0x400 to 0x800 (shared memory space)
GPGPU-Sim PTX: allocating shared region for "__cuda_local_var_18173_33_non_const_peri_col" from 0x800 to 0xc00 (shared memory space)
GPGPU-Sim PTX: instruction assembly for function '_Z13lud_perimeterPfii'...   done.
GPGPU-Sim PTX: finding reconvergence points for '_Z13lud_perimeterPfii'...
GPGPU-Sim PTX: Finding dominators for '_Z13lud_perimeterPfii'...
GPGPU-Sim PTX: Finding immediate dominators for '_Z13lud_perimeterPfii'...
GPGPU-Sim PTX: Finding postdominators for '_Z13lud_perimeterPfii'...
GPGPU-Sim PTX: Finding immediate postdominators for '_Z13lud_perimeterPfii'...
GPGPU-Sim PTX: pre-decoding instructions for '_Z13lud_perimeterPfii'...
GPGPU-Sim PTX: reconvergence points for _Z13lud_perimeterPfii...
GPGPU-Sim PTX:  1 (potential) branch divergence @  PC=0x8b0 (_2.ptx:409) @%p1 bra BB1_2;
GPGPU-Sim PTX:    immediate post dominator      @  PC=0xfd0 (_2.ptx:695) bar.sync 0;
GPGPU-Sim PTX:  2 (potential) branch divergence @  PC=0xc20 (_2.ptx:546) bra.uni BB1_3;
GPGPU-Sim PTX:    immediate post dominator      @  PC=0xfd0 (_2.ptx:695) bar.sync 0;
GPGPU-Sim PTX:  3 (potential) branch divergence @  PC=0xfd8 (_2.ptx:697) @%p1 bra BB1_9;
GPGPU-Sim PTX:    immediate post dominator      @  PC=0x1270 (_2.ptx:816) bar.sync 0;
GPGPU-Sim PTX:  4 (potential) branch divergence @  PC=0x1048 (_2.ptx:716) @%p2 bra BB1_8;
GPGPU-Sim PTX:    immediate post dominator      @  PC=0x10d0 (_2.ptx:742) shl.b64 %rl136, %rl213, 6;
GPGPU-Sim PTX:  5 (potential) branch divergence @  PC=0x10c8 (_2.ptx:739) @%p3 bra BB1_7;
GPGPU-Sim PTX:    immediate post dominator      @  PC=0x10d0 (_2.ptx:742) shl.b64 %rl136, %rl213, 6;
GPGPU-Sim PTX:  6 (potential) branch divergence @  PC=0x1138 (_2.ptx:759) @%p4 bra BB1_13;
GPGPU-Sim PTX:    immediate post dominator      @  PC=0x1270 (_2.ptx:816) bar.sync 0;
GPGPU-Sim PTX:  7 (potential) branch divergence @  PC=0x1140 (_2.ptx:760) bra.uni BB1_5;
GPGPU-Sim PTX:    immediate post dominator      @  PC=0x1008 (_2.ptx:707) mov.u64 %rl214, %rl216;
GPGPU-Sim PTX:  8 (potential) branch divergence @  PC=0x1248 (_2.ptx:805) @%p5 bra BB1_11;
GPGPU-Sim PTX:    immediate post dominator      @  PC=0x1250 (_2.ptx:807) add.s64 %rl30, %rl21, 64;
GPGPU-Sim PTX:  9 (potential) branch divergence @  PC=0x1268 (_2.ptx:812) @%p6 bra BB1_10;
GPGPU-Sim PTX:    immediate post dominator      @  PC=0x1270 (_2.ptx:816) bar.sync 0;
GPGPU-Sim PTX: 10 (potential) branch divergence @  PC=0x1278 (_2.ptx:818) @%p1 bra BB1_15;
GPGPU-Sim PTX:    immediate post dominator      @ 
GPGPU-Sim PTX: ... end of reconvergence points for _Z13lud_perimeterPfii
GPGPU-Sim PTX: ... done pre-decoding instructions for '_Z13lud_perimeterPfii'.
GPGPU-Sim PTX: allocating shared region for "__cuda_local_var_18249_33_non_const_peri_row" from 0x0 to 0x400 (shared memory space)
GPGPU-Sim PTX: allocating shared region for "__cuda_local_var_18250_33_non_const_peri_col" from 0x400 to 0x800 (shared memory space)
GPGPU-Sim PTX: instruction assembly for function '_Z12lud_internalPfii'...   done.
GPGPU-Sim PTX: finding reconvergence points for '_Z12lud_internalPfii'...
GPGPU-Sim PTX: Finding dominators for '_Z12lud_internalPfii'...
GPGPU-Sim PTX: Finding immediate dominators for '_Z12lud_internalPfii'...
GPGPU-Sim PTX: Finding postdominators for '_Z12lud_internalPfii'...
GPGPU-Sim PTX: Finding immediate postdominators for '_Z12lud_internalPfii'...
GPGPU-Sim PTX: pre-decoding instructions for '_Z12lud_internalPfii'...
GPGPU-Sim PTX: reconvergence points for _Z12lud_internalPfii...
GPGPU-Sim PTX: ... end of reconvergence points for _Z12lud_internalPfii
GPGPU-Sim PTX: ... done pre-decoding instructions for '_Z12lud_internalPfii'.
GPGPU-Sim PTX: finished parsing EMBEDDED .ptx file _2.ptx
Adding _cuobjdump_7.ptx with cubin handle 2
GPGPU-Sim PTX: extracting embedded .ptx to temporary file "_ptx_oIABdo"
Running: cat _ptx_oIABdo | sed 's/.version 1.5/.version 1.4/' | sed 's/, texmode_independent//' | sed 's/\(\.extern \.const\[1\] .b8 \w\+\)\[\]/\1\[1\]/' | sed 's/const\[.\]/const\[0\]/g' > _ptx2_9orxdh
GPGPU-Sim PTX: generating ptxinfo using "$CUDA_INSTALL_PATH/bin/ptxas --gpu-name=sm_20 -v _ptx2_9orxdh --output-file  /dev/null 2> _ptx_oIABdoinfo"
GPGPU-Sim PTX: Kernel '_Z13lud_perimeterPfii' : regs=46, lmem=0, smem=3072, cmem=52
GPGPU-Sim PTX: Kernel '_Z12lud_internalPfii' : regs=15, lmem=0, smem=2048, cmem=48
GPGPU-Sim PTX: Kernel '_Z12lud_diagonalPfii' : regs=22, lmem=0, smem=1024, cmem=48
GPGPU-Sim PTX: removing ptxinfo using "rm -f _ptx_oIABdo _ptx2_9orxdh _ptx_oIABdoinfo"
GPGPU-Sim PTX: loading globals with explicit initializers... 
GPGPU-Sim PTX: finished loading globals (0 bytes total).
GPGPU-Sim PTX: loading constants with explicit initializers...  done.
GPGPU-Sim PTX: __cudaRegisterFunction _Z13lud_perimeterPfii : hostFun 0x0x401cc0, fat_cubin_handle = 2
GPGPU-Sim PTX: __cudaRegisterFunction _Z12lud_diagonalPfii : hostFun 0x0x401d40, fat_cubin_handle = 2
WG size of kernel = 16 X 16
Generate input matrix internally, size =256
Creating matrix internally size=256
Before LUD

GPGPU-Sim PTX: cudaLaunch for 0x0x401d40 (mode=performance simulation) on stream 0
GPGPU-Sim PTX: pushing kernel '_Z12lud_diagonalPfii' to stream 0, gridDim= (1,1,1) blockDim = (16,1,1) 
kernel '_Z12lud_diagonalPfii' transfer to GPU hardware scheduler
GPGPU-Sim uArch: Shader 1 bind to kernel 1 '_Z12lud_diagonalPfii'
GPGPU-Sim uArch: CTA/core = 8, limited by: cta_limit
GPGPU-Sim uArch: core:  1, cta: 0 initialized @(1,0)
GPGPU-Sim uArch: cycles simulated: 500  inst.: 0 (ipc= 0.0) sim_rate=0 (inst/sec) elapsed = 0:0:00:01 / Tue Jan 29 18:02:53 2019
GPGPU-Sim uArch: cycles simulated: 3000  inst.: 640 (ipc= 0.2) sim_rate=320 (inst/sec) elapsed = 0:0:00:02 / Tue Jan 29 18:02:54 2019
GPGPU-Sim uArch: cycles simulated: 6500  inst.: 1360 (ipc= 0.2) sim_rate=453 (inst/sec) elapsed = 0:0:00:03 / Tue Jan 29 18:02:55 2019
GPGPU-Sim uArch: cycles simulated: 9500  inst.: 5286 (ipc= 0.6) sim_rate=1321 (inst/sec) elapsed = 0:0:00:04 / Tue Jan 29 18:02:56 2019
GPGPU-Sim uArch: cycles simulated: 13500  inst.: 13530 (ipc= 1.0) sim_rate=2706 (inst/sec) elapsed = 0:0:00:05 / Tue Jan 29 18:02:57 2019
GPGPU-Sim uArch: cycles simulated: 17000  inst.: 18746 (ipc= 1.1) sim_rate=3124 (inst/sec) elapsed = 0:0:00:06 / Tue Jan 29 18:02:58 2019
GPGPU-Sim uArch: cycles simulated: 20500  inst.: 22131 (ipc= 1.1) sim_rate=3161 (inst/sec) elapsed = 0:0:00:07 / Tue Jan 29 18:02:59 2019
GPGPU-Sim uArch: cycles simulated: 24500  inst.: 24324 (ipc= 1.0) sim_rate=3040 (inst/sec) elapsed = 0:0:00:08 / Tue Jan 29 18:03:00 2019
GPGPU-Sim uArch: Shader 1 finished CTA #0 (27502,0), 0 CTAs running
GPGPU-Sim uArch: Shader 1 empty (release kernel 1 '_Z12lud_diagonalPfii').
GPGPU-Sim uArch: GPU detected kernel '_Z12lud_diagonalPfii' finished on shader 1.
kernel_name = _Z12lud_diagonalPfii 
kernel_launch_uid = 1 
gpu_sim_cycle = 27503
gpu_sim_insn = 26018
gpu_ipc =       0.9460
gpu_tot_sim_cycle = 27503
gpu_tot_sim_insn = 26018
gpu_tot_ipc =       0.9460
gpu_tot_issued_cta = 0
gpu_stall_dramfull = 0
gpu_stall_icnt2sh    = 0
gpu_total_sim_rate=3252

========= Core cache stats =========
L1I_cache:
	L1I_total_cache_accesses = 2046
	L1I_total_cache_misses = 17
	L1I_total_cache_miss_rate = 0.0083
	L1I_total_cache_pending_hits = 0
	L1I_total_cache_reservation_fails = 0
L1D_cache:
	L1D_cache_core[0]: Access = 0, Miss = 0, Miss_rate = -nan, Pending_hits = 0, Reservation_fails = 0
	L1D_cache_core[1]: Access = 31, Miss = 16, Miss_rate = 0.516, Pending_hits = 0, Reservation_fails = 0
	L1D_cache_core[2]: Access = 0, Miss = 0, Miss_rate = -nan, Pending_hits = 0, Reservation_fails = 0
	L1D_cache_core[3]: Access = 0, Miss = 0, Miss_rate = -nan, Pending_hits = 0, Reservation_fails = 0
	L1D_cache_core[4]: Access = 0, Miss = 0, Miss_rate = -nan, Pending_hits = 0, Reservation_fails = 0
	L1D_cache_core[5]: Access = 0, Miss = 0, Miss_rate = -nan, Pending_hits = 0, Reservation_fails = 0
	L1D_cache_core[6]: Access = 0, Miss = 0, Miss_rate = -nan, Pending_hits = 0, Reservation_fails = 0
	L1D_cache_core[7]: Access = 0, Miss = 0, Miss_rate = -nan, Pending_hits = 0, Reservation_fails = 0
	L1D_cache_core[8]: Access = 0, Miss = 0, Miss_rate = -nan, Pending_hits = 0, Reservation_fails = 0
	L1D_cache_core[9]: Access = 0, Miss = 0, Miss_rate = -nan, Pending_hits = 0, Reservation_fails = 0
	L1D_cache_core[10]: Access = 0, Miss = 0, Miss_rate = -nan, Pending_hits = 0, Reservation_fails = 0
	L1D_cache_core[11]: Access = 0, Miss = 0, Miss_rate = -nan, Pending_hits = 0, Reservation_fails = 0
	L1D_cache_core[12]: Access = 0, Miss = 0, Miss_rate = -nan, Pending_hits = 0, Reservation_fails = 0
	L1D_cache_core[13]: Access = 0, Miss = 0, Miss_rate = -nan, Pending_hits = 0, Reservation_fails = 0
	L1D_cache_core[14]: Access = 0, Miss = 0, Miss_rate = -nan, Pending_hits = 0, Reservation_fails = 0
	L1D_total_cache_accesses = 31
	L1D_total_cache_misses = 16
	L1D_total_cache_miss_rate = 0.5161
	L1D_total_cache_pending_hits = 0
	L1D_total_cache_reservation_fails = 0
	L1D_cache_data_port_util = 0.001
	L1D_cache_fill_port_util = 0.001
L1C_cache:
	L1C_total_cache_accesses = 6
	L1C_total_cache_misses = 3
	L1C_total_cache_miss_rate = 0.5000
	L1C_total_cache_pending_hits = 0
	L1C_total_cache_reservation_fails = 0
L1T_cache:
	L1T_total_cache_accesses = 0
	L1T_total_cache_misses = 0
	L1T_total_cache_pending_hits = 0
	L1T_total_cache_reservation_fails = 0

Total_core_cache_stats:
	Total_core_cache_stats_breakdown[GLOBAL_ACC_R][MISS] = 16
	Total_core_cache_stats_breakdown[CONST_ACC_R][HIT] = 3
	Total_core_cache_stats_breakdown[CONST_ACC_R][MISS] = 3
	Total_core_cache_stats_breakdown[GLOBAL_ACC_W][HIT] = 15
	Total_core_cache_stats_breakdown[INST_ACC_R][HIT] = 2029
	Total_core_cache_stats_breakdown[INST_ACC_R][MISS] = 17
Shader 0 warp_id issue ditsribution:
warp_id:

distro:

gpgpu_n_tot_thrd_icount = 116800
gpgpu_n_tot_w_icount = 3650
gpgpu_n_stall_shd_mem = 546
gpgpu_n_mem_read_local = 0
gpgpu_n_mem_write_local = 0
gpgpu_n_mem_read_global = 16
gpgpu_n_mem_write_global = 15
gpgpu_n_mem_texture = 0
gpgpu_n_mem_const = 1
gpgpu_n_load_insn  = 256
gpgpu_n_store_insn = 240
gpgpu_n_shmem_insn = 4801
gpgpu_n_tex_insn = 0
gpgpu_n_const_mem_insn = 0
gpgpu_n_param_mem_insn = 96
gpgpu_n_shmem_bkconflict = 0
gpgpu_n_cache_bkconflict = 0
gpgpu_n_intrawarp_mshr_merge = 0
gpgpu_n_cmem_portconflict = 0
gpgpu_stall_shd_mem[c_mem][bk_conf] = 0
gpgpu_stall_shd_mem[c_mem][mshr_rc] = 0
gpgpu_stall_shd_mem[c_mem][icnt_rc] = 0
gpgpu_stall_shd_mem[c_mem][data_port_stall] = 0
gpgpu_stall_shd_mem[t_mem][mshr_rc] = 0
gpgpu_stall_shd_mem[t_mem][icnt_rc] = 0
gpgpu_stall_shd_mem[t_mem][data_port_stall] = 0
gpgpu_stall_shd_mem[s_mem][bk_conf] = 546
gpgpu_stall_shd_mem[gl_mem][bk_conf] = 0
gpgpu_stall_shd_mem[gl_mem][coal_stall] = 0
gpgpu_stall_shd_mem[gl_mem][data_port_stall] = 0
gpgpu_stall_shd_mem[g_mem_ld][mshr_rc] = 0
gpgpu_stall_shd_mem[g_mem_ld][icnt_rc] = 0
gpgpu_stall_shd_mem[g_mem_ld][wb_icnt_rc] = 0
gpgpu_stall_shd_mem[g_mem_ld][wb_rsrv_fail] = 0
gpgpu_stall_shd_mem[g_mem_st][mshr_rc] = 0
gpgpu_stall_shd_mem[g_mem_st][icnt_rc] = 0
gpgpu_stall_shd_mem[g_mem_st][wb_icnt_rc] = 0
gpgpu_stall_shd_mem[g_mem_st][wb_rsrv_fail] = 0
gpgpu_stall_shd_mem[l_mem_ld][mshr_rc] = 0
gpgpu_stall_shd_mem[l_mem_ld][icnt_rc] = 0
gpgpu_stall_shd_mem[l_mem_ld][wb_icnt_rc] = 0
gpgpu_stall_shd_mem[l_mem_ld][wb_rsrv_fail] = 0
gpgpu_stall_shd_mem[l_mem_st][mshr_rc] = 0
gpgpu_stall_shd_mem[l_mem_st][icnt_rc] = 0
gpgpu_stall_shd_mem[l_mem_ld][wb_icnt_rc] = 0
gpgpu_stall_shd_mem[l_mem_ld][wb_rsrv_fail] = 0
gpu_reg_bank_conflict_stalls = 0
Warp Occupancy Distribution:
Stall:0	W0_Idle:34522	W0_Scoreboard:16862	W1:377	W2:353	W3:329	W4:305	W5:281	W6:257	W7:233	W8:209	W9:185	W10:161	W11:137	W12:113	W13:89	W14:65	W15:37	W16:519	W17:0	W18:0	W19:0	W20:0	W21:0	W22:0	W23:0	W24:0	W25:0	W26:0	W27:0	W28:0	W29:0	W30:0	W31:0	W32:0
traffic_breakdown_coretomem[CONST_ACC_R] = 8 {8:1,}
traffic_breakdown_coretomem[GLOBAL_ACC_R] = 128 {8:16,}
traffic_breakdown_coretomem[GLOBAL_ACC_W] = 1080 {72:15,}
traffic_breakdown_coretomem[INST_ACC_R] = 136 {8:17,}
traffic_breakdown_memtocore[CONST_ACC_R] = 72 {72:1,}
traffic_breakdown_memtocore[GLOBAL_ACC_R] = 2176 {136:16,}
traffic_breakdown_memtocore[GLOBAL_ACC_W] = 120 {8:15,}
traffic_breakdown_memtocore[INST_ACC_R] = 2312 {136:17,}
maxmrqlatency = 1 
maxdqlatency = 0 
maxmflatency = 285 
averagemflatency = 209 
max_icnt2mem_latency = 11 
max_icnt2sh_latency = 27502 
mrq_lat_table:34 	0 	0 	0 	0 	0 	0 	0 	0 	0 	0 	0 	0 	0 	0 	0 	0 	0 	0 	0 	0 	0 	0 	0 	0 	0 	0 	0 	0 	0 	0 	0 	
dq_lat_table:0 	0 	0 	0 	0 	0 	0 	0 	0 	0 	0 	0 	0 	0 	0 	0 	0 	0 	0 	0 	0 	0 	0 	0 	0 	0 	0 	0 	0 	0 	0 	0 	
mf_lat_table:0 	0 	0 	0 	0 	0 	0 	15 	17 	0 	0 	0 	0 	0 	0 	0 	0 	0 	0 	0 	0 	0 	0 	0 	0 	0 	0 	0 	0 	0 	0 	0 	
icnt2mem_lat_table:0 	0 	0 	49 	0 	0 	0 	0 	0 	0 	0 	0 	0 	0 	0 	0 	0 	0 	0 	0 	0 	0 	0 	0 	
icnt2sh_lat_table:0 	0 	0 	17 	0 	0 	0 	0 	0 	0 	0 	0 	0 	0 	15 	0 	0 	0 	0 	0 	0 	0 	0 	0 	
mf_lat_pw_table:0 	0 	0 	0 	0 	0 	0 	4 	12 	0 	0 	0 	0 	0 	0 	0 	0 	0 	0 	0 	0 	0 	0 	0 	0 	0 	0 	0 	0 	0 	0 	0 	
maximum concurrent accesses to same row:
dram[0]:         1         0         0         0         0         0         0         0         0         0         0         0         0         0         0         0 
dram[1]:         0         0         0         0         0         0         0         0         0         0         0         0         0         0         0         0 
dram[2]:         0         0         0         0         0         0         0         0         0         0         0         0         0         0         0         0 
dram[3]:         0         0         0         0         0         0         0         0         0         0         0         0         0         0         0         0 
dram[4]:         0         0         0         0         0         0         0         0         0         0         0         0         0         0         0         0 
dram[5]:         0         0         0         0         0         0         0         0         0         0         0         0         0         0         0         0 
maximum service time to same row:
dram[0]:       629     25781         0         0      1448         0         0         0         0         0         0         0         0         0         0         0 
dram[1]:      2357     26523         0         0         0         0         0         0         0         0         0         0         0         0         0         0 
dram[2]:      4716     27268         0         0         0       854         0         0         0         0         0         0         0         0         0         0 
dram[3]:      7054         0         0         0         0         0         0         0         0         0         0         0         0         0         0         0 
dram[4]:      7685         0         0         0      1769         0         0         0         0         0         0         0         0         0         0         0 
dram[5]:      8394         0         0         0         0         0         0         0         0         0         0         0         0         0         0         0 
average row accesses per activate:
dram[0]:  1.000000  2.000000      -nan      -nan  5.000000      -nan      -nan      -nan      -nan      -nan      -nan      -nan      -nan      -nan      -nan      -nan 
dram[1]:  2.000000  2.000000      -nan      -nan      -nan      -nan      -nan      -nan      -nan      -nan      -nan      -nan      -nan      -nan      -nan      -nan 
dram[2]:  2.000000  1.000000      -nan      -nan      -nan  6.000000      -nan      -nan      -nan      -nan      -nan      -nan      -nan      -nan      -nan      -nan 
dram[3]:  2.000000      -nan      -nan      -nan      -nan      -nan      -nan      -nan      -nan      -nan      -nan      -nan      -nan      -nan      -nan      -nan 
dram[4]:  2.000000      -nan      -nan      -nan  5.000000      -nan      -nan      -nan      -nan      -nan      -nan      -nan      -nan      -nan      -nan      -nan 
dram[5]:  2.000000      -nan      -nan      -nan      -nan      -nan      -nan      -nan      -nan      -nan      -nan      -nan      -nan      -nan      -nan      -nan 
average row locality = 34/14 = 2.428571
number of total memory accesses made:
dram[0]:         0         0         0         0         0         0         0         0         0         0         0         0         0         0         0         0 
dram[1]:         0         0         0         0         0         0         0         0         0         0         0         0         0         0         0         0 
dram[2]:         0         0         0         0         0         0         0         0         0         0         0         0         0         0         0         0 
dram[3]:         0         0         0         0         0         0         0         0         0         0         0         0         0         0         0         0 
dram[4]:         0         0         0         0         0         0         0         0         0         0         0         0         0         0         0         0 
dram[5]:         0         0         0         0         0         0         0         0         0         0         0         0         0         0         0         0 
total accesses: 0
min_bank_accesses = 0!
min_chip_accesses = 0!
number of total read accesses:
dram[0]:         3         2         0         0         5         0         0         0         0         0         0         0         0         0         0         0 
dram[1]:         2         2         0         0         0         0         0         0         0         0         0         0         0         0         0         0 
dram[2]:         2         1         0         0         0         6         0         0         0         0         0         0         0         0         0         0 
dram[3]:         2         0         0         0         0         0         0         0         0         0         0         0         0         0         0         0 
dram[4]:         2         0         0         0         5         0         0         0         0         0         0         0         0         0         0         0 
dram[5]:         2         0         0         0         0         0         0         0         0         0         0         0         0         0         0         0 
total reads: 34
min_bank_accesses = 0!
chip skew: 10/2 = 5.00
number of total write accesses:
dram[0]:         0         0         0         0         0         0         0         0         0         0         0         0         0         0         0         0 
dram[1]:         0         0         0         0         0         0         0         0         0         0         0         0         0         0         0         0 
dram[2]:         0         0         0         0         0         0         0         0         0         0         0         0         0         0         0         0 
dram[3]:         0         0         0         0         0         0         0         0         0         0         0         0         0         0         0         0 
dram[4]:         0         0         0         0         0         0         0         0         0         0         0         0         0         0         0         0 
dram[5]:         0         0         0         0         0         0         0         0         0         0         0         0         0         0         0         0 
total reads: 0
min_bank_accesses = 0!
min_chip_accesses = 0!
average mf latency per bank:
dram[0]:         95         0    none      none         406    none      none      none      none      none      none      none      none      none      none      none  
dram[1]:          0         0    none      none      none      none      none      none      none      none      none      none      none      none      none      none  
dram[2]:          0         0    none      none      none         382    none      none      none      none      none      none      none      none      none      none  
dram[3]:          0    none      none      none      none      none      none      none      none      none      none      none      none      none      none      none  
dram[4]:          0    none      none      none         406    none      none      none      none      none      none      none      none      none      none      none  
dram[5]:          0    none      none      none      none      none      none      none      none      none      none      none      none      none      none      none  
maximum mf latency per bank:
dram[0]:        285         0         0         0       275         0         0         0         0         0         0         0         0         0         0         0
dram[1]:          0         0         0         0         0         0         0         0         0         0         0         0         0         0         0         0
dram[2]:          0         0         0         0         0       275         0         0         0         0         0         0         0         0         0         0
dram[3]:          0         0         0         0         0         0         0         0         0         0         0         0         0         0         0         0
dram[4]:          0         0         0         0       275         0         0         0         0         0         0         0         0         0         0         0
dram[5]:          0         0         0         0         0         0         0         0         0         0         0         0         0         0         0         0
Memory Partition 0: 
Cache L2_bank_000:
MSHR contents

Cache L2_bank_001:
MSHR contents

In Dram Latency Queue (total = 0): 
DRAM[0]: 16 bks, busW=4 BL=8 CL=12, tRRD=2 tCCD=6, tRCD=12 tRAS=28 tRP=12 tRC=40
n_cmd=27503 n_nop=27476 n_act=5 n_pre=2 n_req=10 n_rd=20 n_write=0 bw_util=0.001454
n_activity=299 dram_eff=0.1338
bk0: 6a 27432i bk1: 4a 27481i bk2: 0a 27503i bk3: 0a 27503i bk4: 10a 27470i bk5: 0a 27501i bk6: 0a 27501i bk7: 0a 27501i bk8: 0a 27502i bk9: 0a 27502i bk10: 0a 27504i bk11: 0a 27504i bk12: 0a 27504i bk13: 0a 27504i bk14: 0a 27504i bk15: 0a 27504i 
dram_util_bins: 0 0 0 0 0 0 0 0 0 0
dram_eff_bins: 0 0 0 0 0 0 0 0 0 0
mrqq: max=0 avg=0
Memory Partition 1: 
Cache L2_bank_002:
MSHR contents

Cache L2_bank_003:
MSHR contents

In Dram Latency Queue (total = 0): 
DRAM[1]: 16 bks, busW=4 BL=8 CL=12, tRRD=2 tCCD=6, tRCD=12 tRAS=28 tRP=12 tRC=40
n_cmd=27503 n_nop=27493 n_act=2 n_pre=0 n_req=4 n_rd=8 n_write=0 bw_util=0.0005818
n_activity=110 dram_eff=0.1455
bk0: 4a 27483i bk1: 4a 27483i bk2: 0a 27502i bk3: 0a 27503i bk4: 0a 27503i bk5: 0a 27503i bk6: 0a 27503i bk7: 0a 27503i bk8: 0a 27503i bk9: 0a 27503i bk10: 0a 27503i bk11: 0a 27503i bk12: 0a 27503i bk13: 0a 27503i bk14: 0a 27503i bk15: 0a 27503i 
dram_util_bins: 0 0 0 0 0 0 0 0 0 0
dram_eff_bins: 0 0 0 0 0 0 0 0 0 0
mrqq: max=0 avg=0
Memory Partition 2: 
Cache L2_bank_004:
MSHR contents

Cache L2_bank_005:
MSHR contents

In Dram Latency Queue (total = 0): 
DRAM[2]: 16 bks, busW=4 BL=8 CL=12, tRRD=2 tCCD=6, tRCD=12 tRAS=28 tRP=12 tRC=40
n_cmd=27503 n_nop=27482 n_act=3 n_pre=0 n_req=9 n_rd=18 n_write=0 bw_util=0.001309
n_activity=210 dram_eff=0.1714
bk0: 4a 27484i bk1: 2a 27487i bk2: 0a 27502i bk3: 0a 27502i bk4: 0a 27502i bk5: 12a 27466i bk6: 0a 27501i bk7: 0a 27501i bk8: 0a 27502i bk9: 0a 27502i bk10: 0a 27503i bk11: 0a 27504i bk12: 0a 27504i bk13: 0a 27504i bk14: 0a 27504i bk15: 0a 27505i 
dram_util_bins: 0 0 0 0 0 0 0 0 0 0
dram_eff_bins: 0 0 0 0 0 0 0 0 0 0
mrqq: max=0 avg=0
Memory Partition 3: 
Cache L2_bank_006:
MSHR contents

Cache L2_bank_007:
MSHR contents

In Dram Latency Queue (total = 0): 
DRAM[3]: 16 bks, busW=4 BL=8 CL=12, tRRD=2 tCCD=6, tRCD=12 tRAS=28 tRP=12 tRC=40
n_cmd=27503 n_nop=27498 n_act=1 n_pre=0 n_req=2 n_rd=4 n_write=0 bw_util=0.0002909
n_activity=55 dram_eff=0.1455
bk0: 4a 27483i bk1: 0a 27503i bk2: 0a 27503i bk3: 0a 27503i bk4: 0a 27503i bk5: 0a 27503i bk6: 0a 27503i bk7: 0a 27503i bk8: 0a 27503i bk9: 0a 27503i bk10: 0a 27503i bk11: 0a 27503i bk12: 0a 27503i bk13: 0a 27503i bk14: 0a 27503i bk15: 0a 27503i 
dram_util_bins: 0 0 0 0 0 0 0 0 0 0
dram_eff_bins: 0 0 0 0 0 0 0 0 0 0
mrqq: max=0 avg=0
Memory Partition 4: 
Cache L2_bank_008:
MSHR contents

Cache L2_bank_009:
MSHR contents

In Dram Latency Queue (total = 0): 
DRAM[4]: 16 bks, busW=4 BL=8 CL=12, tRRD=2 tCCD=6, tRCD=12 tRAS=28 tRP=12 tRC=40
n_cmd=27503 n_nop=27487 n_act=2 n_pre=0 n_req=7 n_rd=14 n_write=0 bw_util=0.001018
n_activity=155 dram_eff=0.1806
bk0: 4a 27483i bk1: 0a 27503i bk2: 0a 27503i bk3: 0a 27503i bk4: 10a 27470i bk5: 0a 27501i bk6: 0a 27501i bk7: 0a 27501i bk8: 0a 27502i bk9: 0a 27503i bk10: 0a 27504i bk11: 0a 27504i bk12: 0a 27504i bk13: 0a 27504i bk14: 0a 27504i bk15: 0a 27504i 
dram_util_bins: 0 0 0 0 0 0 0 0 0 0
dram_eff_bins: 0 0 0 0 0 0 0 0 0 0
mrqq: max=0 avg=0
Memory Partition 5: 
Cache L2_bank_010:
MSHR contents

Cache L2_bank_011:
MSHR contents

In Dram Latency Queue (total = 0): 
DRAM[5]: 16 bks, busW=4 BL=8 CL=12, tRRD=2 tCCD=6, tRCD=12 tRAS=28 tRP=12 tRC=40
n_cmd=27503 n_nop=27498 n_act=1 n_pre=0 n_req=2 n_rd=4 n_write=0 bw_util=0.0002909
n_activity=55 dram_eff=0.1455
bk0: 4a 27483i bk1: 0a 27503i bk2: 0a 27503i bk3: 0a 27503i bk4: 0a 27503i bk5: 0a 27503i bk6: 0a 27503i bk7: 0a 27503i bk8: 0a 27503i bk9: 0a 27503i bk10: 0a 27503i bk11: 0a 27503i bk12: 0a 27503i bk13: 0a 27503i bk14: 0a 27503i bk15: 0a 27503i 
dram_util_bins: 0 0 0 0 0 0 0 0 0 0
dram_eff_bins: 0 0 0 0 0 0 0 0 0 0
mrqq: max=0 avg=0

========= L2 cache stats =========
L2_cache_bank[0]: Access = 13, Miss = 8, Miss_rate = 0.615, Pending_hits = 0, Reservation_fails = 0
L2_cache_bank[1]: Access = 2, Miss = 2, Miss_rate = 1.000, Pending_hits = 0, Reservation_fails = 0
L2_cache_bank[2]: Access = 2, Miss = 2, Miss_rate = 1.000, Pending_hits = 0, Reservation_fails = 0
L2_cache_bank[3]: Access = 2, Miss = 2, Miss_rate = 1.000, Pending_hits = 0, Reservation_fails = 0
L2_cache_bank[4]: Access = 2, Miss = 2, Miss_rate = 1.000, Pending_hits = 0, Reservation_fails = 0
L2_cache_bank[5]: Access = 12, Miss = 7, Miss_rate = 0.583, Pending_hits = 0, Reservation_fails = 0
L2_cache_bank[6]: Access = 2, Miss = 2, Miss_rate = 1.000, Pending_hits = 0, Reservation_fails = 0
L2_cache_bank[7]: Access = 0, Miss = 0, Miss_rate = -nan, Pending_hits = 0, Reservation_fails = 0
L2_cache_bank[8]: Access = 12, Miss = 7, Miss_rate = 0.583, Pending_hits = 0, Reservation_fails = 0
L2_cache_bank[9]: Access = 0, Miss = 0, Miss_rate = -nan, Pending_hits = 0, Reservation_fails = 0
L2_cache_bank[10]: Access = 2, Miss = 2, Miss_rate = 1.000, Pending_hits = 0, Reservation_fails = 0
L2_cache_bank[11]: Access = 0, Miss = 0, Miss_rate = -nan, Pending_hits = 0, Reservation_fails = 0
L2_total_cache_accesses = 49
L2_total_cache_misses = 34
L2_total_cache_miss_rate = 0.6939
L2_total_cache_pending_hits = 0
L2_total_cache_reservation_fails = 0
L2_total_cache_breakdown:
	L2_cache_stats_breakdown[GLOBAL_ACC_R][MISS] = 16
	L2_cache_stats_breakdown[CONST_ACC_R][MISS] = 1
	L2_cache_stats_breakdown[GLOBAL_ACC_W][HIT] = 15
	L2_cache_stats_breakdown[INST_ACC_R][MISS] = 17
L2_cache_data_port_util = 0.000
L2_cache_fill_port_util = 0.000

icnt_total_pkts_mem_to_simt=183
icnt_total_pkts_simt_to_mem=79
LD_mem_lat_dist  0 0 0 0 0 0 0 0 0 0 0 0 0 0 0 0 0 0 0 0 0 0 0 0 0 0 0
ST_mem_lat_dist  0 0 0 0 0 0 0 0 0 0 0 0 0 0 0 0 0 0 0 0 0 0 0 0 0 0 0
----------------------------Interconnect-DETAILS--------------------------------
Class 0:
Packet latency average = 7.68367
	minimum = 6
	maximum = 10
Network latency average = 7.68367
	minimum = 6
	maximum = 10
Slowest packet = 1
Flit latency average = 6.00382
	minimum = 6
	maximum = 7
Slowest flit = 191
Fragmentation average = 0
	minimum = 0
	maximum = 0
Injected packet rate average = 0.000131972
	minimum = 0 (at node 0)
	maximum = 0.00178162 (at node 1)
Accepted packet rate average = 0.000131972
	minimum = 0 (at node 0)
	maximum = 0.00178162 (at node 1)
Injected flit rate average = 0.000352823
	minimum = 0 (at node 0)
	maximum = 0.00287241 (at node 1)
Accepted flit rate average= 0.000352823
	minimum = 0 (at node 0)
	maximum = 0.00665382 (at node 1)
Injected packet length average = 2.67347
Accepted packet length average = 2.67347
Total in-flight flits = 0 (0 measured)
====== Overall Traffic Statistics ======
====== Traffic class 0 ======
Packet latency average = 7.68367 (1 samples)
	minimum = 6 (1 samples)
	maximum = 10 (1 samples)
Network latency average = 7.68367 (1 samples)
	minimum = 6 (1 samples)
	maximum = 10 (1 samples)
Flit latency average = 6.00382 (1 samples)
	minimum = 6 (1 samples)
	maximum = 7 (1 samples)
Fragmentation average = 0 (1 samples)
	minimum = 0 (1 samples)
	maximum = 0 (1 samples)
Injected packet rate average = 0.000131972 (1 samples)
	minimum = 0 (1 samples)
	maximum = 0.00178162 (1 samples)
Accepted packet rate average = 0.000131972 (1 samples)
	minimum = 0 (1 samples)
	maximum = 0.00178162 (1 samples)
Injected flit rate average = 0.000352823 (1 samples)
	minimum = 0 (1 samples)
	maximum = 0.00287241 (1 samples)
Accepted flit rate average = 0.000352823 (1 samples)
	minimum = 0 (1 samples)
	maximum = 0.00665382 (1 samples)
Injected packet size average = 2.67347 (1 samples)
Accepted packet size average = 2.67347 (1 samples)
Hops average = 1 (1 samples)
----------------------------END-of-Interconnect-DETAILS-------------------------


gpgpu_simulation_time = 0 days, 0 hrs, 0 min, 8 sec (8 sec)
gpgpu_simulation_rate = 3252 (inst/sec)
gpgpu_simulation_rate = 3437 (cycle/sec)

GPGPU-Sim PTX: cudaLaunch for 0x0x401cc0 (mode=performance simulation) on stream 0
GPGPU-Sim PTX: pushing kernel '_Z13lud_perimeterPfii' to stream 0, gridDim= (15,1,1) blockDim = (32,1,1) 
kernel '_Z13lud_perimeterPfii' transfer to GPU hardware scheduler
GPGPU-Sim uArch: Shader 2 bind to kernel 2 '_Z13lud_perimeterPfii'
GPGPU-Sim uArch: CTA/core = 8, limited by: cta_limit
GPGPU-Sim uArch: core:  2, cta: 0 initialized @(1,27503)
GPGPU-Sim uArch: Shader 3 bind to kernel 2 '_Z13lud_perimeterPfii'
GPGPU-Sim uArch: core:  3, cta: 0 initialized @(1,27503)
GPGPU-Sim uArch: Shader 4 bind to kernel 2 '_Z13lud_perimeterPfii'
GPGPU-Sim uArch: core:  4, cta: 0 initialized @(1,27503)
GPGPU-Sim uArch: Shader 5 bind to kernel 2 '_Z13lud_perimeterPfii'
GPGPU-Sim uArch: core:  5, cta: 0 initialized @(1,27503)
GPGPU-Sim uArch: Shader 6 bind to kernel 2 '_Z13lud_perimeterPfii'
GPGPU-Sim uArch: core:  6, cta: 0 initialized @(1,27503)
GPGPU-Sim uArch: Shader 7 bind to kernel 2 '_Z13lud_perimeterPfii'
GPGPU-Sim uArch: core:  7, cta: 0 initialized @(1,27503)
GPGPU-Sim uArch: Shader 8 bind to kernel 2 '_Z13lud_perimeterPfii'
GPGPU-Sim uArch: core:  8, cta: 0 initialized @(1,27503)
GPGPU-Sim uArch: Shader 9 bind to kernel 2 '_Z13lud_perimeterPfii'
GPGPU-Sim uArch: core:  9, cta: 0 initialized @(1,27503)
GPGPU-Sim uArch: Shader 10 bind to kernel 2 '_Z13lud_perimeterPfii'
GPGPU-Sim uArch: core: 10, cta: 0 initialized @(1,27503)
GPGPU-Sim uArch: Shader 11 bind to kernel 2 '_Z13lud_perimeterPfii'
GPGPU-Sim uArch: core: 11, cta: 0 initialized @(1,27503)
GPGPU-Sim uArch: Shader 12 bind to kernel 2 '_Z13lud_perimeterPfii'
GPGPU-Sim uArch: core: 12, cta: 0 initialized @(1,27503)
GPGPU-Sim uArch: Shader 13 bind to kernel 2 '_Z13lud_perimeterPfii'
GPGPU-Sim uArch: core: 13, cta: 0 initialized @(1,27503)
GPGPU-Sim uArch: Shader 14 bind to kernel 2 '_Z13lud_perimeterPfii'
GPGPU-Sim uArch: core: 14, cta: 0 initialized @(1,27503)
GPGPU-Sim uArch: Shader 0 bind to kernel 2 '_Z13lud_perimeterPfii'
GPGPU-Sim uArch: core:  0, cta: 0 initialized @(1,27503)
GPGPU-Sim uArch: Shader 1 bind to kernel 2 '_Z13lud_perimeterPfii'
GPGPU-Sim uArch: core:  1, cta: 0 initialized @(1,27503)
GPGPU-Sim uArch: cycles simulated: 28003  inst.: 30786 (ipc= 9.5) sim_rate=3420 (inst/sec) elapsed = 0:0:00:09 / Tue Jan 29 18:03:01 2019
GPGPU-Sim uArch: cycles simulated: 29003  inst.: 37874 (ipc= 7.9) sim_rate=3787 (inst/sec) elapsed = 0:0:00:10 / Tue Jan 29 18:03:02 2019
GPGPU-Sim uArch: cycles simulated: 30003  inst.: 41970 (ipc= 6.4) sim_rate=3815 (inst/sec) elapsed = 0:0:00:11 / Tue Jan 29 18:03:03 2019
GPGPU-Sim uArch: cycles simulated: 31503  inst.: 48690 (ipc= 5.7) sim_rate=4057 (inst/sec) elapsed = 0:0:00:12 / Tue Jan 29 18:03:04 2019
GPGPU-Sim uArch: cycles simulated: 32503  inst.: 51954 (ipc= 5.2) sim_rate=3996 (inst/sec) elapsed = 0:0:00:13 / Tue Jan 29 18:03:05 2019
GPGPU-Sim uArch: cycles simulated: 34003  inst.: 58018 (ipc= 4.9) sim_rate=4144 (inst/sec) elapsed = 0:0:00:14 / Tue Jan 29 18:03:06 2019
GPGPU-Sim uArch: cycles simulated: 35003  inst.: 61538 (ipc= 4.7) sim_rate=4102 (inst/sec) elapsed = 0:0:00:15 / Tue Jan 29 18:03:07 2019
GPGPU-Sim uArch: cycles simulated: 36503  inst.: 70114 (ipc= 4.9) sim_rate=4382 (inst/sec) elapsed = 0:0:00:16 / Tue Jan 29 18:03:08 2019
GPGPU-Sim uArch: cycles simulated: 37503  inst.: 74306 (ipc= 4.8) sim_rate=4370 (inst/sec) elapsed = 0:0:00:17 / Tue Jan 29 18:03:09 2019
GPGPU-Sim uArch: cycles simulated: 39003  inst.: 78882 (ipc= 4.6) sim_rate=4382 (inst/sec) elapsed = 0:0:00:18 / Tue Jan 29 18:03:10 2019
GPGPU-Sim uArch: cycles simulated: 40503  inst.: 84690 (ipc= 4.5) sim_rate=4457 (inst/sec) elapsed = 0:0:00:19 / Tue Jan 29 18:03:11 2019
GPGPU-Sim uArch: cycles simulated: 41503  inst.: 90946 (ipc= 4.6) sim_rate=4547 (inst/sec) elapsed = 0:0:00:20 / Tue Jan 29 18:03:12 2019
GPGPU-Sim PTX: 100000 instructions simulated : ctaid=(4,0,0) tid=(3,0,0)
GPGPU-Sim uArch: cycles simulated: 43003  inst.: 129202 (ipc= 6.7) sim_rate=6152 (inst/sec) elapsed = 0:0:00:21 / Tue Jan 29 18:03:13 2019
GPGPU-Sim uArch: cycles simulated: 44003  inst.: 179202 (ipc= 9.3) sim_rate=8145 (inst/sec) elapsed = 0:0:00:22 / Tue Jan 29 18:03:14 2019
GPGPU-Sim PTX: 200000 instructions simulated : ctaid=(7,0,0) tid=(3,0,0)
GPGPU-Sim uArch: cycles simulated: 45003  inst.: 229090 (ipc=11.6) sim_rate=9960 (inst/sec) elapsed = 0:0:00:23 / Tue Jan 29 18:03:15 2019
GPGPU-Sim uArch: cycles simulated: 46003  inst.: 278994 (ipc=13.7) sim_rate=11624 (inst/sec) elapsed = 0:0:00:24 / Tue Jan 29 18:03:16 2019
GPGPU-Sim PTX: 300000 instructions simulated : ctaid=(2,0,0) tid=(3,0,0)
GPGPU-Sim uArch: cycles simulated: 47003  inst.: 328722 (ipc=15.5) sim_rate=13148 (inst/sec) elapsed = 0:0:00:25 / Tue Jan 29 18:03:17 2019
GPGPU-Sim uArch: cycles simulated: 48003  inst.: 378610 (ipc=17.2) sim_rate=14561 (inst/sec) elapsed = 0:0:00:26 / Tue Jan 29 18:03:18 2019
GPGPU-Sim PTX: 400000 instructions simulated : ctaid=(9,0,0) tid=(3,0,0)
GPGPU-Sim uArch: cycles simulated: 49503  inst.: 450674 (ipc=19.3) sim_rate=16691 (inst/sec) elapsed = 0:0:00:27 / Tue Jan 29 18:03:19 2019
GPGPU-Sim PTX: 500000 instructions simulated : ctaid=(2,0,0) tid=(19,0,0)
GPGPU-Sim uArch: cycles simulated: 50503  inst.: 498498 (ipc=20.5) sim_rate=17803 (inst/sec) elapsed = 0:0:00:28 / Tue Jan 29 18:03:20 2019
GPGPU-Sim uArch: cycles simulated: 51503  inst.: 526402 (ipc=20.8) sim_rate=18151 (inst/sec) elapsed = 0:0:00:29 / Tue Jan 29 18:03:21 2019
GPGPU-Sim uArch: cycles simulated: 53003  inst.: 586386 (ipc=22.0) sim_rate=19546 (inst/sec) elapsed = 0:0:00:30 / Tue Jan 29 18:03:22 2019
GPGPU-Sim PTX: 600000 instructions simulated : ctaid=(4,0,0) tid=(19,0,0)
GPGPU-Sim uArch: cycles simulated: 54003  inst.: 626482 (ipc=22.7) sim_rate=20209 (inst/sec) elapsed = 0:0:00:31 / Tue Jan 29 18:03:23 2019
GPGPU-Sim uArch: cycles simulated: 55003  inst.: 667602 (ipc=23.3) sim_rate=20862 (inst/sec) elapsed = 0:0:00:32 / Tue Jan 29 18:03:24 2019
GPGPU-Sim PTX: 700000 instructions simulated : ctaid=(5,0,0) tid=(19,0,0)
GPGPU-Sim uArch: cycles simulated: 56003  inst.: 709026 (ipc=24.0) sim_rate=21485 (inst/sec) elapsed = 0:0:00:33 / Tue Jan 29 18:03:25 2019
GPGPU-Sim uArch: cycles simulated: 57503  inst.: 770274 (ipc=24.8) sim_rate=22655 (inst/sec) elapsed = 0:0:00:34 / Tue Jan 29 18:03:26 2019
GPGPU-Sim PTX: 800000 instructions simulated : ctaid=(10,0,0) tid=(19,0,0)
GPGPU-Sim uArch: cycles simulated: 58503  inst.: 811666 (ipc=25.3) sim_rate=23190 (inst/sec) elapsed = 0:0:00:35 / Tue Jan 29 18:03:27 2019
GPGPU-Sim uArch: cycles simulated: 59003  inst.: 833106 (ipc=25.6) sim_rate=23141 (inst/sec) elapsed = 0:0:00:36 / Tue Jan 29 18:03:28 2019
GPGPU-Sim PTX: 900000 instructions simulated : ctaid=(10,0,0) tid=(19,0,0)
GPGPU-Sim uArch: cycles simulated: 60503  inst.: 892146 (ipc=26.2) sim_rate=24112 (inst/sec) elapsed = 0:0:00:37 / Tue Jan 29 18:03:29 2019
GPGPU-Sim uArch: cycles simulated: 61503  inst.: 932786 (ipc=26.7) sim_rate=24547 (inst/sec) elapsed = 0:0:00:38 / Tue Jan 29 18:03:30 2019
GPGPU-Sim uArch: cycles simulated: 63003  inst.: 953506 (ipc=26.1) sim_rate=24448 (inst/sec) elapsed = 0:0:00:39 / Tue Jan 29 18:03:31 2019
GPGPU-Sim uArch: Shader 2 finished CTA #0 (35999,27503), 0 CTAs running
GPGPU-Sim uArch: Shader 2 empty (release kernel 2 '_Z13lud_perimeterPfii').
GPGPU-Sim uArch: cycles simulated: 64003  inst.: 970610 (ipc=25.9) sim_rate=24265 (inst/sec) elapsed = 0:0:00:40 / Tue Jan 29 18:03:32 2019
GPGPU-Sim uArch: Shader 4 finished CTA #0 (36658,27503), 0 CTAs running
GPGPU-Sim uArch: Shader 4 empty (release kernel 2 '_Z13lud_perimeterPfii').
GPGPU-Sim uArch: Shader 3 finished CTA #0 (36661,27503), 0 CTAs running
GPGPU-Sim uArch: Shader 3 empty (release kernel 2 '_Z13lud_perimeterPfii').
GPGPU-Sim uArch: Shader 5 finished CTA #0 (36697,27503), 0 CTAs running
GPGPU-Sim uArch: Shader 5 empty (release kernel 2 '_Z13lud_perimeterPfii').
GPGPU-Sim uArch: Shader 7 finished CTA #0 (36710,27503), 0 CTAs running
GPGPU-Sim uArch: Shader 7 empty (release kernel 2 '_Z13lud_perimeterPfii').
GPGPU-Sim uArch: Shader 6 finished CTA #0 (36715,27503), 0 CTAs running
GPGPU-Sim uArch: Shader 6 empty (release kernel 2 '_Z13lud_perimeterPfii').
GPGPU-Sim uArch: Shader 8 finished CTA #0 (36725,27503), 0 CTAs running
GPGPU-Sim uArch: Shader 8 empty (release kernel 2 '_Z13lud_perimeterPfii').
GPGPU-Sim uArch: Shader 1 finished CTA #0 (36726,27503), 0 CTAs running
GPGPU-Sim uArch: Shader 1 empty (release kernel 2 '_Z13lud_perimeterPfii').
GPGPU-Sim uArch: Shader 0 finished CTA #0 (36731,27503), 0 CTAs running
GPGPU-Sim uArch: Shader 0 empty (release kernel 2 '_Z13lud_perimeterPfii').
GPGPU-Sim uArch: Shader 13 finished CTA #0 (36742,27503), 0 CTAs running
GPGPU-Sim uArch: Shader 13 empty (release kernel 2 '_Z13lud_perimeterPfii').
GPGPU-Sim uArch: Shader 14 finished CTA #0 (36748,27503), 0 CTAs running
GPGPU-Sim uArch: Shader 14 empty (release kernel 2 '_Z13lud_perimeterPfii').
GPGPU-Sim uArch: Shader 9 finished CTA #0 (36754,27503), 0 CTAs running
GPGPU-Sim uArch: Shader 9 empty (release kernel 2 '_Z13lud_perimeterPfii').
GPGPU-Sim uArch: Shader 10 finished CTA #0 (36761,27503), 0 CTAs running
GPGPU-Sim uArch: Shader 10 empty (release kernel 2 '_Z13lud_perimeterPfii').
GPGPU-Sim uArch: Shader 11 finished CTA #0 (36770,27503), 0 CTAs running
GPGPU-Sim uArch: Shader 11 empty (release kernel 2 '_Z13lud_perimeterPfii').
GPGPU-Sim uArch: Shader 12 finished CTA #0 (36779,27503), 0 CTAs running
GPGPU-Sim uArch: Shader 12 empty (release kernel 2 '_Z13lud_perimeterPfii').
GPGPU-Sim uArch: GPU detected kernel '_Z13lud_perimeterPfii' finished on shader 12.
kernel_name = _Z13lud_perimeterPfii 
kernel_launch_uid = 2 
gpu_sim_cycle = 36780
gpu_sim_insn = 949440
gpu_ipc =      25.8140
gpu_tot_sim_cycle = 64283
gpu_tot_sim_insn = 975458
gpu_tot_ipc =      15.1744
gpu_tot_issued_cta = 0
gpu_stall_dramfull = 1
gpu_stall_icnt2sh    = 214
gpu_total_sim_rate=24386

========= Core cache stats =========
L1I_cache:
	L1I_total_cache_accesses = 35915
	L1I_total_cache_misses = 496
	L1I_total_cache_miss_rate = 0.0138
	L1I_total_cache_pending_hits = 0
	L1I_total_cache_reservation_fails = 0
L1D_cache:
	L1D_cache_core[0]: Access = 79, Miss = 48, Miss_rate = 0.608, Pending_hits = 0, Reservation_fails = 0
	L1D_cache_core[1]: Access = 110, Miss = 63, Miss_rate = 0.573, Pending_hits = 0, Reservation_fails = 0
	L1D_cache_core[2]: Access = 79, Miss = 32, Miss_rate = 0.405, Pending_hits = 0, Reservation_fails = 0
	L1D_cache_core[3]: Access = 79, Miss = 48, Miss_rate = 0.608, Pending_hits = 0, Reservation_fails = 0
	L1D_cache_core[4]: Access = 79, Miss = 48, Miss_rate = 0.608, Pending_hits = 0, Reservation_fails = 0
	L1D_cache_core[5]: Access = 79, Miss = 48, Miss_rate = 0.608, Pending_hits = 0, Reservation_fails = 0
	L1D_cache_core[6]: Access = 79, Miss = 48, Miss_rate = 0.608, Pending_hits = 0, Reservation_fails = 0
	L1D_cache_core[7]: Access = 79, Miss = 48, Miss_rate = 0.608, Pending_hits = 0, Reservation_fails = 0
	L1D_cache_core[8]: Access = 79, Miss = 48, Miss_rate = 0.608, Pending_hits = 0, Reservation_fails = 0
	L1D_cache_core[9]: Access = 79, Miss = 48, Miss_rate = 0.608, Pending_hits = 0, Reservation_fails = 0
	L1D_cache_core[10]: Access = 79, Miss = 48, Miss_rate = 0.608, Pending_hits = 0, Reservation_fails = 0
	L1D_cache_core[11]: Access = 79, Miss = 48, Miss_rate = 0.608, Pending_hits = 0, Reservation_fails = 0
	L1D_cache_core[12]: Access = 79, Miss = 48, Miss_rate = 0.608, Pending_hits = 0, Reservation_fails = 0
	L1D_cache_core[13]: Access = 79, Miss = 48, Miss_rate = 0.608, Pending_hits = 0, Reservation_fails = 0
	L1D_cache_core[14]: Access = 79, Miss = 48, Miss_rate = 0.608, Pending_hits = 0, Reservation_fails = 0
	L1D_total_cache_accesses = 1216
	L1D_total_cache_misses = 719
	L1D_total_cache_miss_rate = 0.5913
	L1D_total_cache_pending_hits = 0
	L1D_total_cache_reservation_fails = 0

GPGPU-Sim PTX: cudaLaunch for 0x0x401c40 (mode=performance simulation) on stream 0
	L1D_cache_data_port_util = 0.001
	L1D_cache_fill_port_util = 0.001
L1C_cache:
	L1C_total_cache_accesses = 141
	L1C_total_cache_misses = 17
	L1C_total_cache_miss_rate = 0.1206
	L1C_total_cache_pending_hits = 0
	L1C_total_cache_reservation_fails = 0
L1T_cache:
	L1T_total_cache_accesses = 0
	L1T_total_cache_misses = 0
	L1T_total_cache_pending_hits = 0
	L1T_total_cache_reservation_fails = 0

Total_core_cache_stats:
	Total_core_cache_stats_breakdown[GLOBAL_ACC_R][HIT] = 17
	Total_core_cache_stats_breakdown[GLOBAL_ACC_R][MISS] = 719
	Total_core_cache_stats_breakdown[CONST_ACC_R][HIT] = 124
	Total_core_cache_stats_breakdown[CONST_ACC_R][MISS] = 17
	Total_core_cache_stats_breakdown[GLOBAL_ACC_W][HIT] = 480
	Total_core_cache_stats_breakdown[INST_ACC_R][HIT] = 35419
	Total_core_cache_stats_breakdown[INST_ACC_R][MISS] = 496
Shader 0 warp_id issue ditsribution:
warp_id:
0, 
distro:
4001, 
gpgpu_n_tot_thrd_icount = 2037280
gpgpu_n_tot_w_icount = 63665
gpgpu_n_stall_shd_mem = 30681
gpgpu_n_mem_read_local = 0
gpgpu_n_mem_write_local = 0
gpgpu_n_mem_read_global = 719
gpgpu_n_mem_write_global = 480
gpgpu_n_mem_texture = 0
gpgpu_n_mem_const = 15
gpgpu_n_load_insn  = 11776
gpgpu_n_store_insn = 7680
gpgpu_n_shmem_insn = 215281
gpgpu_n_tex_insn = 0
gpgpu_n_const_mem_insn = 0
gpgpu_n_param_mem_insn = 2496
gpgpu_n_shmem_bkconflict = 0
gpgpu_n_cache_bkconflict = 0
gpgpu_n_intrawarp_mshr_merge = 0
gpgpu_n_cmem_portconflict = 0
gpgpu_stall_shd_mem[c_mem][bk_conf] = 0
gpgpu_stall_shd_mem[c_mem][mshr_rc] = 0
gpgpu_stall_shd_mem[c_mem][icnt_rc] = 0
gpgpu_stall_shd_mem[c_mem][data_port_stall] = 0
gpgpu_stall_shd_mem[t_mem][mshr_rc] = 0
gpgpu_stall_shd_mem[t_mem][icnt_rc] = 0
gpgpu_stall_shd_mem[t_mem][data_port_stall] = 0
gpgpu_stall_shd_mem[s_mem][bk_conf] = 30681
gpgpu_stall_shd_mem[gl_mem][bk_conf] = 0
gpgpu_stall_shd_mem[gl_mem][coal_stall] = 0
gpgpu_stall_shd_mem[gl_mem][data_port_stall] = 0
gpgpu_stall_shd_mem[g_mem_ld][mshr_rc] = 0
gpgpu_stall_shd_mem[g_mem_ld][icnt_rc] = 0
gpgpu_stall_shd_mem[g_mem_ld][wb_icnt_rc] = 0
gpgpu_stall_shd_mem[g_mem_ld][wb_rsrv_fail] = 0
gpgpu_stall_shd_mem[g_mem_st][mshr_rc] = 0
gpgpu_stall_shd_mem[g_mem_st][icnt_rc] = 0
gpgpu_stall_shd_mem[g_mem_st][wb_icnt_rc] = 0
gpgpu_stall_shd_mem[g_mem_st][wb_rsrv_fail] = 0
gpgpu_stall_shd_mem[l_mem_ld][mshr_rc] = 0
gpgpu_stall_shd_mem[l_mem_ld][icnt_rc] = 0
gpgpu_stall_shd_mem[l_mem_ld][wb_icnt_rc] = 0
gpgpu_stall_shd_mem[l_mem_ld][wb_rsrv_fail] = 0
gpgpu_stall_shd_mem[l_mem_st][mshr_rc] = 0
gpgpu_stall_shd_mem[l_mem_st][icnt_rc] = 0
gpgpu_stall_shd_mem[l_mem_ld][wb_icnt_rc] = 0
gpgpu_stall_shd_mem[l_mem_ld][wb_rsrv_fail] = 0
gpu_reg_bank_conflict_stalls = 0
Warp Occupancy Distribution:
Stall:0	W0_Idle:698479	W0_Scoreboard:393272	W1:377	W2:353	W3:329	W4:305GPGPU-Sim PTX: pushing kernel '_Z12lud_internalPfii' to stream 0, gridDim= (15,15,1) blockDim = (16,16,1) 
	W5:281	W6:257	W7:233	W8:209	W9:185	W10:161	W11:137	W12:113	W13:89	W14:65	W15:37	W16:60249	W17:0	W18:0	W19:0	W20:0	W21:0	W22:0	W23:0	W24:0	W25:0	W26:0	W27:0	W28:0	W29:0	W30:0	W31:0	W32:285
traffic_breakdown_coretomem[CONST_ACC_R] = 120 {8:15,}
traffic_breakdown_coretomem[GLOBAL_ACC_R] = 5752 {8:719,}
traffic_breakdown_coretomem[GLOBAL_ACC_W] = 34560 {72:480,}
traffic_breakdown_coretomem[INST_ACC_R] = 3968 {8:496,}
traffic_breakdown_memtocore[CONST_ACC_R] = 1080 {72:15,}
traffic_breakdown_memtocore[GLOBAL_ACC_R] = 97784 {136:719,}
traffic_breakdown_memtocore[GLOBAL_ACC_W] = 3840 {8:480,}
traffic_breakdown_memtocore[INST_ACC_R] = 67456 {136:496,}
maxmrqlatency = 5 
maxdqlatency = 0 
maxmflatency = 285 
averagemflatency = 195 
max_icnt2mem_latency = 34 
max_icnt2sh_latency = 64282 
mrq_lat_table:415 	0 	2 	0 	0 	0 	0 	0 	0 	0 	0 	0 	0 	0 	0 	0 	0 	0 	0 	0 	0 	0 	0 	0 	0 	0 	0 	0 	0 	0 	0 	0 	
dq_lat_table:0 	0 	0 	0 	0 	0 	0 	0 	0 	0 	0 	0 	0 	0 	0 	0 	0 	0 	0 	0 	0 	0 	0 	0 	0 	0 	0 	0 	0 	0 	0 	0 	
mf_lat_table:0 	0 	0 	0 	0 	0 	0 	735 	479 	0 	0 	0 	0 	0 	0 	0 	0 	0 	0 	0 	0 	0 	0 	0 	0 	0 	0 	0 	0 	0 	0 	0 	
icnt2mem_lat_table:0 	0 	0 	1655 	53 	2 	0 	0 	0 	0 	0 	0 	0 	0 	0 	0 	0 	0 	0 	0 	0 	0 	0 	0 	
icnt2sh_lat_table:0 	0 	0 	605 	129 	0 	0 	0 	0 	0 	0 	0 	0 	0 	15 	465 	0 	0 	0 	0 	0 	0 	0 	0 	
mf_lat_pw_table:0 	0 	0 	0 	0 	0 	0 	25 	28 	0 	0 	0 	0 	0 	0 	0 	0 	0 	0 	0 	0 	0 	0 	0 	0 	0 	0 	0 	0 	0 	0 	0 	
maximum concurrent accesses to same row:
dram[0]:         1         0         0         0         0         0         0         0         0         0         0         0         0         0         0         0 
dram[1]:         0         0         0         0         0         0         0         0         0         0         0         0         0         0         0         0 
dram[2]:         0         0         0         0         0         0         0         0         0         0         0         0         0         0         0         0 
dram[3]:         0         0         0         0         0         0         0         0         0         0         0         0         0         0         0         0 
dram[4]:         0         0         0         0         0         0         0         0         0         0         0         0         0         0         0         0 
dram[5]:         0         0         0         0         0         0         0         0         0         0         0         0         0         0         0         0 
maximum service time to same row:
dram[0]:       629     25781         0         0      1448      3308      6661         0      9660         0      9679         0      9721         0      9703         0 
dram[1]:      2357     26523         0         0      2795      3278         0         0         0         0         0         0         0         0         0         0 
dram[2]:      4716     27268         0         0      2843       854         0      7252         0      9673         0      9715         0      9697         0      9685 
dram[3]:      7054      5619         0         0      2801      2481         0         0         0         0         0         0         0         0         0         0 
dram[4]:      7685      6314         0         0      1769      2529      6957         0      9666         0      9709         0      9727         0      9691         0 
dram[5]:      8394      8923         0         0      3266      2487         0         0         0         0         0         0         0         0         0         0 
average row accesses per activate:
dram[0]:  1.666667  4.000000      -nan      -nan 10.000000 10.000000 16.000000      -nan 16.000000      -nan 16.000000      -nan 16.000000      -nan 16.000000      -nan 
dram[1]:  4.000000  4.000000      -nan      -nan 10.000000 10.000000      -nan      -nan      -nan      -nan      -nan      -nan      -nan      -nan      -nan      -nan 
dram[2]:  4.000000  4.000000      -nan      -nan 10.000000 12.000000      -nan 16.000000      -nan 16.000000      -nan 16.000000      -nan 16.000000      -nan 16.000000 
dram[3]:  4.000000  4.000000      -nan      -nan 10.000000 12.000000      -nan      -nan      -nan      -nan      -nan      -nan      -nan      -nan      -nan      -nan 
dram[4]:  4.000000  4.000000      -nan      -nan 10.000000 12.000000 16.000000      -nan 16.000000      -nan 16.000000      -nan 16.000000      -nan 16.000000      -nan 
dram[5]:  4.000000  4.000000      -nan      -nan 10.000000 12.000000      -nan      -nan      -nan      -nan      -nan      -nan      -nan      -nan      -nan      -nan 
average row locality = 417/41 = 10.170732
number of total memory accesses made:
dram[0]:         0         0         0         0         0         0         0         0         0         0         0         0         0         0         0         0 
dram[1]:         0         0         0         0         0         0         0         0         0         0         0         0         0         0         0         0 
dram[2]:         0         0         0         0         0         0         0         0         0         0         0         0         0         0         0         0 
dram[3]:         0         0         0         0         0         0         0         0         0         0         0         0         0         0         0         0 
dram[4]:         0         0         0         0         0         0         0         0         0         0         0         0         0         0         0         0 
dram[5]:         0         0         0         0         0         0         0         0         0         0         0         0         0         0         0         0 
total accesses: 0
min_bank_accesses = 0!
min_chip_accesses = 0!
number of total read accesses:
dram[0]:         5         4         0         0        10        10        16         0        16         0        16         0        16         0        16         0 
dram[1]:         4         4         0         0        10        10         0         0         0         0         0         0         0         0         0         0 
dram[2]:         4         4         0         0        10        12         0        16         0        16         0        16         0        16         0        16 
dram[3]:         4         4         0         0        10        12         0         0         0         0         0         0         0         0         0         0 
dram[4]:         4         4         0         0        10        12        16         0        16         0        16         0        16         0        16         0 
dram[5]:         4         4         0         0        10        12         0         0         0         0         0         0         0         0         0         0 
total reads: 417
min_bank_accesses = 0!
chip skew: 110/28 = 3.93
number of total write accesses:
dram[0]:         0         0         0         0         0         0         0         0         0         0         0         0         0         0         0         0 
dram[1]:         0         0         0         0         0         0         0         0         0         0         0         0         0         0         0         0 
dram[2]:         0         0         0         0         0         0         0         0         0         0         0         0         0         0         0         0 
dram[3]:         0         0         0         0         0         0         0         0         0         0         0         0         0         0         0         0 
dram[4]:         0         0         0         0         0         0         0         0         0         0         0         0         0         0         0         0 
dram[5]:         0         0         0         0         0         0         0         0         0         0         0         0         0         0         0         0 
total reads: 0
min_bank_accesses = 0!
min_chip_accesses = 0!
average mf latency per bank:
dram[0]:        451         0    none      none        1806       809       405    none         408    none         407    none         406    none         406    none  
dram[1]:          0         0    none      none         810       809    none      none      none      none      none      none      none      none      none      none  
dram[2]:          0         0    none      none         814      1691    none         404    none         408    none         410    none         410    none         410
dram[3]:          0         0    none      none         810       761    none      none      none      none      none      none      none      none      none      none  
dram[4]:          0         0    none      none        1752       765       405    none         408    none         407    none         407    none         407    none  
dram[5]:          0         0    none      none         810       758    none      none      none      none      none      none      none      none      none      none  
maximum mf latency per bank:
dram[0]:        285         0         0         0       275       275       275         0       275         0       275         0       275         0       275         0
dram[1]:          0         0         0         0       275       275         0         0         0         0         0         0         0         0         0         0
dram[2]:          0         0         0         0       275       275         0       275         0       276         0       275         0       275         0       276
dram[3]:          0         0         0         0       275       275         0         0         0         0         0         0         0         0         0         0
dram[4]:          0         0         0         0       275       275       275         0       275         0       275         0       275         0       275         0
dram[5]:          0         0         0         0       275       275         0         0         0         0         0         0         0         0         0         0
Memory Partition 0: 
Cache L2_bank_000:
MSHR contents

Cache L2_bank_001:
MSHR contents

In Dram Latency Queue (total = 0): 
DRAM[0]: 16 bks, busW=4 BL=8 CL=12, tRRD=2 tCCD=6, tRCD=12 tRAS=28 tRP=12 tRC=40
n_cmd=64283 n_nop=64052 n_act=11 n_pre=2 n_req=109 n_rd=218 n_write=0 bw_util=0.006783
n_activity=1817 dram_eff=0.24
bk0: 10a 64203i bk1: 8a 64253i bk2: 0a 64284i bk3: 0a 64284i bk4: 20a 64231i bk5: 20a 64231i bk6: 32a 64205i bk7: 0a 64281i bk8: 32a 64205i bk9: 0a 64280i bk10: 32a 64207i bk11: 0a 64282i bk12: 32a 64207i bk13: 0a 64284i bk14: 32a 64207i bk15: 0a 64282i 
dram_util_bins: 0 0 0 0 0 0 0 0 0 0
dram_eff_bins: 0 0 0 0 0 0 0 0 0 0
mrqq: max=0 avg=0
Memory Partition 1: 
Cache L2_bank_002:
MSHR contents

Cache L2_bank_003:
MSHR contents

In Dram Latency Queue (total = 0): 
DRAM[1]: 16 bks, busW=4 BL=8 CL=12, tRRD=2 tCCD=6, tRCD=12 tRAS=28 tRP=12 tRC=40
n_cmd=64283 n_nop=64223 n_act=4 n_pre=0 n_req=28 n_rd=56 n_write=0 bw_util=0.001742
n_activity=483 dram_eff=0.2319
bk0: 8a 64255i bk1: 8a 64255i bk2: 0a 64282i bk3: 0a 64283i bk4: 20a 64231i bk5: 20a 64230i bk6: 0a 64282i bk7: 0a 64283i bk8: 0a 64283i bk9: 0a 64283i bk10: 0a 64283i bk11: 0a 64283i bk12: 0a 64283i bk13: 0a 64283i bk14: 0a 64283i bk15: 0a 64283i 
dram_util_bins: 0 0 0 0 0 0 0 0 0 0
dram_eff_bins: 0 0 0 0 0 0 0 0 0 0
mrqq: max=0 avg=0
Memory Partition 2: 
Cache L2_bank_004:
MSHR contents

Cache L2_bank_005:
MSHR contents

In Dram Latency Queue (total = 0): 
DRAM[2]: 16 bks, busW=4 BL=8 CL=12, tRRD=2 tCCD=6, tRCD=12 tRAS=28 tRP=12 tRC=40
n_cmd=64283 n_nop=64054 n_act=9 n_pre=0 n_req=110 n_rd=220 n_write=0 bw_util=0.006845
n_activity=1738 dram_eff=0.2532
bk0: 8a 64254i bk1: 8a 64254i bk2: 0a 64281i bk3: 0a 64281i bk4: 20a 64227i bk5: 24a 64223i bk6: 0a 64282i bk7: 32a 64206i bk8: 0a 64282i bk9: 32a 64205i bk10: 0a 64282i bk11: 32a 64209i bk12: 0a 64284i bk13: 32a 64208i bk14: 0a 64283i bk15: 32a 64208i 
dram_util_bins: 0 0 0 0 0 0 0 0 0 0
dram_eff_bins: 0 0 0 0 0 0 0 0 0 0
mrqq: max=1 avg=6.22248e-05
Memory Partition 3: 
Cache L2_bank_006:
MSHR contents

Cache L2_bank_007:
MSHR contents

In Dram Latency Queue (total = 0): 
DRAM[3]: 16 bks, busW=4 BL=8 CL=12, tRRD=2 tCCD=6, tRCD=12 tRAS=28 tRP=12 tRC=40
n_cmd=64283 n_nop=64219 n_act=4 n_pre=0 n_req=30 n_rd=60 n_write=0 bw_util=0.001867
n_activity=528 dram_eff=0.2273
bk0: 8a 64255i bk1: 8a 64255i bk2: 0a 64283i bk3: 0a 64285i bk4: 20a 64232i bk5: 24a 64222i bk6: 0a 64281i bk7: 0a 64281i bk8: 0a 64282i bk9: 0a 64283i bk10: 0a 64283i bk11: 0a 64283i bk12: 0a 64283i bk13: 0a 64283i bk14: 0a 64283i bk15: 0a 64283i 
dram_util_bins: 0 0 0 0 0 0 0 0 0 0
dram_eff_bins: 0 0 0 0 0 0 0 0 0 0
mrqq: max=0 avg=0
Memory Partition 4: 
Cache L2_bank_008:
MSHR contents

Cache L2_bank_009:
MSHR contents

In Dram Latency Queue (total = 0): 
DRAM[4]: 16 bks, busW=4 BL=8 CL=12, tRRD=2 tCCD=6, tRCD=12 tRAS=28 tRP=12 tRC=40
n_cmd=64283 n_nop=64054 n_act=9 n_pre=0 n_req=110 n_rd=220 n_write=0 bw_util=0.006845
n_activity=1755 dram_eff=0.2507
bk0: 8a 64254i bk1: 8a 64254i bk2: 0a 64282i bk3: 0a 64284i bk4: 20a 64232i bk5: 24a 64221i bk6: 32a 64206i bk7: 0a 64281i bk8: 32a 64205i bk9: 0a 64283i bk10: 32a 64208i bk11: 0a 64283i bk12: 32a 64207i bk13: 0a 64282i bk14: 32a 64206i bk15: 0a 64282i 
dram_util_bins: 0 0 0 0 0 0 0 0 0 0
dram_eff_bins: 0 0 0 0 0 0 0 0 0 0
mrqq: max=1 avg=6.22248e-05
Memory Partition 5: 
Cache L2_bank_010:
MSHR contents

Cache L2_bank_011:
MSHR contents

In Dram Latency Queue (total = 0): 
DRAM[5]: 16 bks, busW=4 BL=8 CL=12, tRRD=2 tCCD=6, tRCD=12 tRAS=28 tRP=12 tRC=40
n_cmd=64283 n_nop=64219 n_act=4 n_pre=0 n_req=30 n_rd=60 n_write=0 bw_util=0.001867
n_activity=517 dram_eff=0.2321
bk0: 8a 64256i bk1: 8a 64255i bk2: 0a 64283i bk3: 0a 64284i bk4: 20a 64231i bk5: 24a 64221i bk6: 0a 64280i bk7: 0a 64280i bk8: 0a 64281i bk9: 0a 64283i bk10: 0a 64283i bk11: 0a 64284i bk12: 0a 64284i bk13: 0a 64284i bk14: 0a 64284i bk15: 0a 64284i 
dram_util_bins: 0 0 0 0 0 0 0 0 0 0
dram_eff_bins: 0 0 0 0 0 0 0 0 0 0
mrqq: max=0 avg=0

========= L2 cache stats =========
L2_cache_bank[0]: Access = 317, Miss = 95, Miss_rate = 0.300, Pending_hits = 5, Reservation_fails = 0
L2_cache_bank[1]: Access = 72, Miss = 14, Miss_rate = 0.194, Pending_hits = 10, Reservation_fails = 0
L2_cache_bank[2]: Access = 72, Miss = 14, Miss_rate = 0.194, Pending_hits = 13, Reservation_fails = 37
L2_cache_bank[3]: Access = 72, Miss = 14, Miss_rate = 0.194, Pending_hits = 10, Reservation_fails = 0
L2_cache_bank[4]: Access = 72, Miss = 14, Miss_rate = 0.194, Pending_hits = 10, Reservation_fails = 0
L2_cache_bank[5]: Access = 347, Miss = 96, Miss_rate = 0.277, Pending_hits = 6, Reservation_fails = 0
[...]
gpgpu_stall_shd_mem[gl_mem][bk_conf] = 0
gpgpu_stall_shd_mem[gl_mem][coal_stall] = 377459
gpgpu_stall_shd_mem[gl_mem][data_port_stall] = 0
gpgpu_stall_shd_mem[g_mem_ld][mshr_rc] = 0
gpgpu_stall_shd_mem[g_mem_ld][icnt_rc] = 0
gpgpu_stall_shd_mem[g_mem_ld][wb_icnt_rc] = 0
gpgpu_stall_shd_mem[g_mem_ld][wb_rsrv_fail] = 0
gpgpu_stall_shd_mem[g_mem_st][mshr_rc] = 0
gpgpu_stall_shd_mem[g_mem_st][icnt_rc] = 0
gpgpu_stall_shd_mem[g_mem_st][wb_icnt_rc] = 0
gpgpu_stall_shd_mem[g_mem_st][wb_rsrv_fail] = 0
gpgpu_stall_shd_mem[l_mem_ld][mshr_rc] = 0
gpgpu_stall_shd_mem[l_mem_ld][icnt_rc] = 0
gpgpu_stall_shd_mem[l_mem_ld][wb_icnt_rc] = 0
gpgpu_stall_shd_mem[l_mem_ld][wb_rsrv_fail] = 0
gpgpu_stall_shd_mem[l_mem_st][mshr_rc] = 0
gpgpu_stall_shd_mem[l_mem_st][icnt_rc] = 0
gpgpu_stall_shd_mem[l_mem_ld][wb_icnt_rc] = 0
gpgpu_stall_shd_mem[l_mem_ld][wb_rsrv_fail] = 0
gpu_reg_bank_conflict_stalls = 0
Warp Occupancy Distribution:
Stall:725674	W0_Idle:5460304	W0_Scoreboard:3332350	W1:6032	W2:5648	W3:5264	W4:4880	W5:4496	W6:4112	W7:3728	W8:3344	W9:2960	W10:2576	W11:2192	W12:1808	W13:1424	W14:1040	W15:592	W16:486144	W17:0	W18:0	W19:0	W20:0	W21:0	W22:0	W23:0	W24:0	W25:0	W26:0	W27:0	W28:0	W29:0	W30:0	W31:0	W32:994280
traffic_breakdown_coretomem[CONST_ACC_R] = 120 {8:15,}
traffic_breakdown_coretomem[GLOBAL_ACC_R] = 438808 {8:54851,}
traffic_breakdown_coretomem[GLOBAL_ACC_W] = 1713600 {72:23800,}
traffic_breakdown_coretomem[INST_ACC_R] = 39040 {8:4880,}
traffic_breakdown_memtocore[CONST_ACC_R] = 1080 {72:15,}
traffic_breakdown_memtocore[GLOBAL_ACC_R] = 7459736 {136:54851,}
traffic_breakdown_memtocore[GLOBAL_ACC_W] = 190400 {8:23800,}
traffic_breakdown_memtocore[INST_ACC_R] = 663680 {136:4880,}
maxmrqlatency = 53 
maxdqlatency = 0 
maxmflatency = 1421 
averagemflatency = 328 
max_icnt2mem_latency = 1552 
max_icnt2sh_latency = 954154 
mrq_lat_table:1851 	52 	55 	69 	43 	33 	0 	0 	0 	0 	0 	0 	0 	0 	0 	0 	0 	0 	0 	0 	0 	0 	0 	0 	0 	0 	0 	0 	0 	0 	0 	0 	
dq_lat_table:0 	0 	0 	0 	0 	0 	0 	0 	0 	0 	0 	0 	0 	0 	0 	0 	0 	0 	0 	0 	0 	0 	0 	0 	0 	0 	0 	0 	0 	0 	0 	0 	
mf_lat_table:0 	0 	0 	0 	0 	0 	0 	40633 	25734 	10381 	1918 	0 	0 	0 	0 	0 	0 	0 	0 	0 	0 	0 	0 	0 	0 	0 	0 	0 	0 	0 	0 	0 	
icnt2mem_lat_table:0 	0 	0 	41437 	9767 	5671 	7082 	7379 	6279 	5819 	112 	0 	0 	0 	0 	0 	0 	0 	0 	0 	0 	0 	0 	0 	
icnt2sh_lat_table:0 	0 	0 	9354 	31873 	12661 	978 	0 	0 	0 	0 	0 	0 	0 	15 	465 	3662 	6660 	8832 	4166 	0 	0 	0 	0 	
mf_lat_pw_table:0 	0 	0 	0 	0 	0 	0 	673 	96 	38 	1 	0 	0 	0 	0 	0 	0 	0 	0 	0 	0 	0 	0 	0 	0 	0 	0 	0 	0 	0 	0 	0 	
maximum concurrent accesses to same row:
dram[0]:         1         0         0         0         0         0         0         0         0         0         0         0         0         0         0         0 
dram[1]:         0         0         0         0         0         0         0         0         0         0         0         0         0         0         0         0 
dram[2]:         0         0         0         0         0         0         0         0         0         0         0         0         0         0         0         0 
dram[3]:         0         0         0         0         0         0         0         0         0         0         0         0         0         0         0         0 
dram[4]:         0         0         0         0         0         0         0         0         0         0         0         0         0         0         0         0 
dram[5]:         0         0         0         0         0         0         0         0         0         0         0         0         0         0         0         0 
maximum service time to same row:
dram[0]:       629     25781         0         0      1448      3308      6661      4653      9660      4942      9679      7591      9721      9755      9703     11826 
dram[1]:      2357     26523         0         0      2795      3278      4954      4609      5083      4966      7194      8332      9549      9773     11409     11900 
dram[2]:      4716     27268         0         0      2843       854      4655      7252      4947      9673      7593      9715      9756      9697     11830      9685 
dram[3]:      7054      5619         0         0      2801      2481      4611      4956      5027      5329      8334      7270      9773      9521     11904     11426 
dram[4]:      7685      6314         0         0      1769      2529      6957      4657      9666      4959      9709      7756      9727      9795      9691     11842 
dram[5]:      8394      8923         0         0      3266      2487      4952      4615      5081      5213      7192      8340      9533      9791     11406     11966 
average row accesses per activate:
dram[0]:  2.333333  4.000000      -nan      -nan 10.000000 10.000000 32.000000 32.000000 32.000000 32.000000 32.000000 32.000000 32.000000 32.000000 32.000000 32.000000 
dram[1]:  6.000000  4.000000      -nan      -nan 10.000000 10.000000 32.000000 32.000000 32.000000 32.000000 32.000000 32.000000 32.000000 32.000000 32.000000 32.000000 
dram[2]:  6.000000  4.000000      -nan      -nan 10.000000 12.000000 32.000000 32.000000 32.000000 32.000000 32.000000 32.000000 32.000000 32.000000 32.000000 32.000000 
dram[3]:  4.000000  4.000000      -nan      -nan 10.000000 12.000000 32.000000 32.000000 32.000000 32.000000 32.000000 32.000000 32.000000 32.000000 32.000000 32.000000 
dram[4]:  4.000000  4.000000      -nan      -nan 10.000000 12.000000 32.000000 32.000000 32.000000 32.000000 32.000000 32.000000 32.000000 32.000000 32.000000 32.000000 
dram[5]:  4.000000  4.000000      -nan      -nan 10.000000 12.000000 32.000000 32.000000 32.000000 32.000000 32.000000 32.000000 32.000000 32.000000 32.000000 32.000000 
average row locality = 2103/86 = 24.453489
number of total memory accesses made:
dram[0]:         0         0         0         0         0         0         0         0         0         0         0         0         0         0         0         0 
dram[1]:         0         0         0         0         0         0         0         0         0         0         0         0         0         0         0         0 
dram[2]:         0         0         0         0         0         0         0         0         0         0         0         0         0         0         0         0 
dram[3]:         0         0         0         0         0         0         0         0         0         0         0         0         0         0         0         0 
dram[4]:         0         0         0         0         0         0         0         0         0         0         0         0         0         0         0         0 
dram[5]:         0         0         0         0         0         0         0         0         0         0         0         0         0         0         0         0 
total accesses: 0
min_bank_accesses = 0!
min_chip_accesses = 0!
number of total read accesses:
dram[0]:         7         4         0         0        10        10        32        32        32        32        32        32        32        32        32        32 
dram[1]:         6         4         0         0        10        10        32        32        32        32        32        32        32        32        32        32 
dram[2]:         6         4         0         0        10        12        32        32        32        32        32        32        32        32        32        32 
dram[3]:         4         4         0         0        10        12        32        32        32        32        32        32        32        32        32        32 
dram[4]:         4         4         0         0        10        12        32        32        32        32        32        32        32        32        32        32 
dram[5]:         4         4         0         0        10        12        32        32        32        32        32        32        32        32        32        32 
total reads: 2103
min_bank_accesses = 0!
chip skew: 352/350 = 1.01
number of total write accesses:
dram[0]:         0         0         0         0         0         0         0         0         0         0         0         0         0         0         0         0 
dram[1]:         0         0         0         0         0         0         0         0         0         0         0         0         0         0         0         0 
dram[2]:         0         0         0         0         0         0         0         0         0         0         0         0         0         0         0         0 
dram[3]:         0         0         0         0         0         0         0         0         0         0         0         0         0         0         0         0 
dram[4]:         0         0         0         0         0         0         0         0         0         0         0         0         0         0         0         0 
dram[5]:         0         0         0         0         0         0         0         0         0         0         0         0         0         0         0         0 
total reads: 0
min_bank_accesses = 0!
min_chip_accesses = 0!
average mf latency per bank:
dram[0]:        322         0    none      none        6303      4544     13529      9688     23789      9969     20717     12132     14939     12871      9836     12196
dram[1]:          0         0    none      none        4764      5489      8756      9806     12125     10539     18064     12565     17963     12405     12930     11404
dram[2]:          0         0    none      none        4726      5484      9938     13872     11381     24512     12597     19483     12761     12562     11936      8421
dram[3]:          0         0    none      none        5634      4784      9185      9283     10831     11237     12573     16788     12671     16821     11690     12140
dram[4]:          0         0    none      none        6016      4615     13290      9242     23139      9849     19193     11996     12765     12605      8411     12014
dram[5]:          0         0    none      none        4811      5693      9503      9778     12268     11074     17641     12904     17643     12967     12422     11849
maximum mf latency per bank:
dram[0]:        285         0         0         0       883       739      1370       885      1279       946      1395      1061      1239      1416      1000      1421
dram[1]:          0         0         0         0       734       771       935       923      1273      1026      1272       795      1315       730      1317       773
dram[2]:          0         0         0         0       757       907       843      1417       951      1330       865      1342      1357      1227      1254       865
dram[3]:          0         0         0         0       871       741       995       909      1059      1157       842      1312       768      1247       715      1194
dram[4]:          0         0         0         0      1076       763      1372       760      1372       909      1390       857      1278      1298       794      1327
dram[5]:          0         0         0         0       745       803       891       947      1278      1059      1282       842      1331       736      1233       728
Memory Partition 0: 
Cache L2_bank_000:
MSHR contents

Cache L2_bank_001:
MSHR contents

In Dram Latency Queue (total = 0): 
DRAM[0]: 16 bks, busW=4 BL=8 CL=12, tRRD=2 tCCD=6, tRCD=12 tRAS=28 tRP=12 tRC=40
n_cmd=954155 n_nop=953435 n_act=16 n_pre=2 n_req=351 n_rd=702 n_write=0 bw_util=0.001471
n_activity=4662 dram_eff=0.3012
bk0: 14a 954065i bk1: 8a 954123i bk2: 0a 954154i bk3: 0a 954154i bk4: 20a 954102i bk5: 20a 954105i bk6: 64a 953996i bk7: 64a 953921i bk8: 64a 954008i bk9: 64a 953991i bk10: 64a 954011i bk11: 64a 953994i bk12: 64a 954005i bk13: 64a 953986i bk14: 64a 954012i bk15: 64a 953998i 
dram_util_bins: 0 0 0 0 0 0 0 0 0 0
dram_eff_bins: 0 0 0 0 0 0 0 0 0 0
mrqq: max=2 avg=0.000103757
Memory Partition 1: 
Cache L2_bank_002:
MSHR contents

Cache L2_bank_003:
MSHR contents

In Dram Latency Queue (total = 0): 
DRAM[1]: 16 bks, busW=4 BL=8 CL=12, tRRD=2 tCCD=6, tRCD=12 tRAS=28 tRP=12 tRC=40
n_cmd=954155 n_nop=953441 n_act=14 n_pre=0 n_req=350 n_rd=700 n_write=0 bw_util=0.001467
n_activity=3961 dram_eff=0.3534
bk0: 12a 954116i bk1: 8a 954126i bk2: 0a 954154i bk3: 0a 954155i bk4: 20a 954104i bk5: 20a 954103i bk6: 64a 953957i bk7: 64a 953941i bk8: 64a 954008i bk9: 64a 953969i bk10: 64a 953998i bk11: 64a 953997i bk12: 64a 953980i bk13: 64a 953949i bk14: 64a 953984i bk15: 64a 953986i 
dram_util_bins: 0 0 0 0 0 0 0 0 0 0
dram_eff_bins: 0 0 0 0 0 0 0 0 0 0
mrqq: max=8 avg=0.000890841
Memory Partition 2: 
Cache L2_bank_004:
MSHR contents

Cache L2_bank_005:
MSHR contents

In Dram Latency Queue (total = 0): 
DRAM[2]: 16 bks, busW=4 BL=8 CL=12, tRRD=2 tCCD=6, tRCD=12 tRAS=28 tRP=12 tRC=40
n_cmd=954155 n_nop=953437 n_act=14 n_pre=0 n_req=352 n_rd=704 n_write=0 bw_util=0.001476
n_activity=4629 dram_eff=0.3042
bk0: 12a 954116i bk1: 8a 954125i bk2: 0a 954152i bk3: 0a 954152i bk4: 20a 954099i bk5: 24a 954096i bk6: 64a 953983i bk7: 64a 954003i bk8: 64a 954004i bk9: 64a 953984i bk10: 64a 954009i bk11: 64a 954016i bk12: 64a 954004i bk13: 64a 953995i bk14: 64a 954004i bk15: 64a 954000i 
dram_util_bins: 0 0 0 0 0 0 0 0 0 0
dram_eff_bins: 0 0 0 0 0 0 0 0 0 0
mrqq: max=3 avg=0.000175024
Memory Partition 3: 
Cache L2_bank_006:
MSHR contents

Cache L2_bank_007:
MSHR contents

In Dram Latency Queue (total = 0): 
DRAM[3]: 16 bks, busW=4 BL=8 CL=12, tRRD=2 tCCD=6, tRCD=12 tRAS=28 tRP=12 tRC=40
n_cmd=954155 n_nop=953441 n_act=14 n_pre=0 n_req=350 n_rd=700 n_write=0 bw_util=0.001467
n_activity=4081 dram_eff=0.3431
bk0: 8a 954122i bk1: 8a 954124i bk2: 0a 954154i bk3: 0a 954159i bk4: 20a 954107i bk5: 24a 954099i bk6: 64a 953969i bk7: 64a 953951i bk8: 64a 954001i bk9: 64a 953999i bk10: 64a 954002i bk11: 64a 953996i bk12: 64a 953997i bk13: 64a 953961i bk14: 64a 953995i bk15: 64a 953964i 
dram_util_bins: 0 0 0 0 0 0 0 0 0 0
dram_eff_bins: 0 0 0 0 0 0 0 0 0 0
mrqq: max=9 avg=0.00113713
Memory Partition 4: 
Cache L2_bank_008:
MSHR contents

Cache L2_bank_009:
MSHR contents

In Dram Latency Queue (total = 0): 
DRAM[4]: 16 bks, busW=4 BL=8 CL=12, tRRD=2 tCCD=6, tRCD=12 tRAS=28 tRP=12 tRC=40
n_cmd=954155 n_nop=953441 n_act=14 n_pre=0 n_req=350 n_rd=700 n_write=0 bw_util=0.001467
n_activity=4557 dram_eff=0.3072
bk0: 8a 954124i bk1: 8a 954124i bk2: 0a 954153i bk3: 0a 954155i bk4: 20a 954103i bk5: 24a 954092i bk6: 64a 954000i bk7: 64a 953982i bk8: 64a 954007i bk9: 64a 953975i bk10: 64a 954014i bk11: 64a 954006i bk12: 64a 954010i bk13: 64a 954003i bk14: 64a 954004i bk15: 64a 953994i 
dram_util_bins: 0 0 0 0 0 0 0 0 0 0
dram_eff_bins: 0 0 0 0 0 0 0 0 0 0
mrqq: max=3 avg=0.000169784
Memory Partition 5: 
Cache L2_bank_010:
MSHR contents

Cache L2_bank_011:
MSHR contents

In Dram Latency Queue (total = 0): 
DRAM[5]: 16 bks, busW=4 BL=8 CL=12, tRRD=2 tCCD=6, tRCD=12 tRAS=28 tRP=12 tRC=40
n_cmd=954155 n_nop=953441 n_act=14 n_pre=0 n_req=350 n_rd=700 n_write=0 bw_util=0.001467
n_activity=4059 dram_eff=0.3449
bk0: 8a 954126i bk1: 8a 954126i bk2: 0a 954154i bk3: 0a 954155i bk4: 20a 954103i bk5: 24a 954094i bk6: 64a 953961i bk7: 64a 953909i bk8: 64a 953999i bk9: 64a 953978i bk10: 64a 954010i bk11: 64a 953991i bk12: 64a 953966i bk13: 64a 953993i bk14: 64a 953975i bk15: 64a 953985i 
dram_util_bins: 0 0 0 0 0 0 0 0 0 0
dram_eff_bins: 0 0 0 0 0 0 0 0 0 0
mrqq: max=8 avg=0.00101137

========= L2 cache stats =========
L2_cache_bank[0]: Access = 5889, Miss = 177, Miss_rate = 0.030, Pending_hits = 45, Reservation_fails = 201
L2_cache_bank[1]: Access = 7249, Miss = 174, Miss_rate = 0.024, Pending_hits = 60, Reservation_fails = 0
L2_cache_bank[2]: Access = 6889, Miss = 176, Miss_rate = 0.026, Pending_hits = 88, Reservation_fails = 37
L2_cache_bank[3]: Access = 7756, Miss = 174, Miss_rate = 0.022, Pending_hits = 30, Reservation_fails = 0
L2_cache_bank[4]: Access = 7484, Miss = 176, Miss_rate = 0.024, Pending_hits = 60, Reservation_fails = 0
L2_cache_bank[5]: Access = 5874, Miss = 176, Miss_rate = 0.030, Pending_hits = 41, Reservation_fails = 0
L2_cache_bank[6]: Access = 7721, Miss = 174, Miss_rate = 0.023, Pending_hits = 30, Reservation_fails = 0
L2_cache_bank[7]: Access = 6883, Miss = 176, Miss_rate = 0.026, Pending_hits = 90, Reservation_fails = 0
L2_cache_bank[8]: Access = 5611, Miss = 174, Miss_rate = 0.031, Pending_hits = 42, Reservation_fails = 0
L2_cache_bank[9]: Access = 7497, Miss = 176, Miss_rate = 0.023, Pending_hits = 60, Reservation_fails = 0
L2_cache_bank[10]: Access = 6656, Miss = 174, Miss_rate = 0.026, Pending_hits = 91, Reservation_fails = 0
L2_cache_bank[11]: Access = 8037, Miss = 176, Miss_rate = 0.022, Pending_hits = 31, Reservation_fails = 0
L2_total_cache_accesses = 83546
L2_total_cache_misses = 2103
L2_total_cache_miss_rate = 0.0252
L2_total_cache_pending_hits = 668
L2_total_cache_reservation_fails = 238
L2_total_cache_breakdown:
	L2_cache_stats_breakdown[GLOBAL_ACC_R][HIT] = 52144
	L2_cache_stats_breakdown[GLOBAL_ACC_R][HIT_RESERVED] = 659
	L2_cache_stats_breakdown[GLOBAL_ACC_R][MISS] = 2048
	L2_cache_stats_breakdown[CONST_ACC_R][HIT] = 14
	L2_cache_stats_breakdown[CONST_ACC_R][MISS] = 1
	L2_cache_stats_breakdown[GLOBAL_ACC_W][HIT] = 23800
	L2_cache_stats_breakdown[INST_ACC_R][HIT] = 4817
	L2_cache_stats_breakdown[INST_ACC_R][HIT_RESERVED] = 9
	L2_cache_stats_breakdown[INST_ACC_R][MISS] = 54
	L2_cache_stats_breakdown[INST_ACC_R][RESERVATION_FAIL] = 238
L2_cache_data_port_util = 0.024
L2_cache_fill_port_util = 0.001

icnt_total_pkts_mem_to_simt=322500
icnt_total_pkts_simt_to_mem=131146
LD_mem_lat_dist  0 0 0 0 0 0 0 0 0 0 0 0 0 0 0 0 0 0 0 0 0 0 0 0 0 0 0
ST_mem_lat_dist  0 0 0 0 0 0 0 0 0 0 0 0 0 0 0 0 0 0 0 0 0 0 0 0 0 0 0
----------------------------Interconnect-DETAILS--------------------------------
Class 0:
Packet latency average = 7.69792
	minimum = 6
	maximum = 10
Network latency average = 7.69792
	minimum = 6
	maximum = 10
Slowest packet = 166997
Flit latency average = 6.00388
	minimum = 6
	maximum = 7
Slowest flit = 453575
Fragmentation average = 0
	minimum = 0
	maximum = 0
Injected packet rate average = 0.000153993
	minimum = 0 (at node 0)
	maximum = 0.00207891 (at node 6)
Accepted packet rate average = 0.000153993
	minimum = 0 (at node 0)
	maximum = 0.00207891 (at node 6)
Injected flit rate average = 0.000413857
	minimum = 0 (at node 0)
	maximum = 0.00337823 (at node 6)
Accepted flit rate average= 0.000413857
	minimum = 0 (at node 0)
	maximum = 0.00779592 (at node 6)
Injected packet length average = 2.6875
Accepted packet length average = 2.6875
Total in-flight flits = 0 (0 measured)
====== Overall Traffic Statistics ======
====== Traffic class 0 ======
Packet latency average = 20.1111 (46 samples)
	minimum = 6 (46 samples)
	maximum = 211.5 (46 samples)
Network latency average = 15.0938 (46 samples)
	minimum = 6 (46 samples)
	maximum = 154.239 (46 samples)
Flit latency average = 10.4868 (46 samples)
	minimum = 6 (46 samples)
	maximum = 152.674 (46 samples)
Fragmentation average = 0.0123352 (46 samples)
	minimum = 0 (46 samples)
	maximum = 44.8043 (46 samples)
Injected packet rate average = 0.0151721 (46 samples)
	minimum = 0.00415436 (46 samples)
	maximum = 0.0324658 (46 samples)
Accepted packet rate average = 0.0151721 (46 samples)
	minimum = 0.00415436 (46 samples)
	maximum = 0.0324658 (46 samples)
Injected flit rate average = 0.0412135 (46 samples)
	minimum = 0.00674597 (46 samples)
	maximum = 0.129733 (46 samples)
Accepted flit rate average = 0.0412135 (46 samples)
	minimum = 0.00841972 (46 samples)
	maximum = 0.0780239 (46 samples)
Injected packet size average = 2.71639 (46 samples)
Accepted packet size average = 2.71639 (46 samples)
Hops average = 1 (46 samples)
----------------------------END-of-Interconnect-DETAILS-------------------------


gpgpu_simulation_time = 0 days, 0 hrs, 11 min, 20 sec (680 sec)
gpgpu_simulation_rate = 58464 (inst/sec)
gpgpu_simulation_rate = 1403 (cycle/sec)
Time consumed(ms): 679842.343000
After LUD
>>>Verify<<<<
