

        *** GPGPU-Sim Simulator Version 3.2.2  [build 0] ***


GPGPU-Sim PTX: simulation mode 0 (can change with PTX_SIM_MODE_FUNC environment variable:
               1=functional simulation only, 0=detailed performance simulator)
GPGPU-Sim: Configuration options:

-network_mode                           1 # Interconnection network mode
-inter_config_file   config_fermi_islip.icnt # Interconnection network config file
-gpgpu_ptx_use_cuobjdump                    1 # Use cuobjdump to extract ptx and sass from binaries
-gpgpu_experimental_lib_support                    0 # Try to extract code from cuda libraries [Broken because of unknown cudaGetExportTable]
-gpgpu_ptx_convert_to_ptxplus                    0 # Convert SASS (native ISA) to ptxplus and run ptxplus
-gpgpu_ptx_force_max_capability                   20 # Force maximum compute capability
-gpgpu_ptx_inst_debug_to_file                    0 # Dump executed instructions' debug information to file
-gpgpu_ptx_inst_debug_file       inst_debug.txt # Executed instructions' debug output file
-gpgpu_ptx_inst_debug_thread_uid                    1 # Thread UID for executed instructions' debug output
-gpgpu_simd_model                       1 # 1 = post-dominator
-gpgpu_shader_core_pipeline              1536:32 # shader core pipeline config, i.e., {<nthread>:<warpsize>}
-gpgpu_tex_cache:l1  4:128:24,L:R:m:N:L,F:128:4,128:2 # per-shader L1 texture cache  (READ-ONLY) config  {<nsets>:<bsize>:<assoc>,<rep>:<wr>:<alloc>:<wr_alloc>,<mshr>:<N>:<merge>,<mq>:<rf>}
-gpgpu_const_cache:l1 64:64:2,L:R:f:N:L,A:2:32,4 # per-shader L1 constant memory cache  (READ-ONLY) config  {<nsets>:<bsize>:<assoc>,<rep>:<wr>:<alloc>:<wr_alloc>,<mshr>:<N>:<merge>,<mq>} 
-gpgpu_cache:il1     4:128:4,L:R:f:N:L,A:2:32,4 # shader L1 instruction cache config  {<nsets>:<bsize>:<assoc>,<rep>:<wr>:<alloc>:<wr_alloc>,<mshr>:<N>:<merge>,<mq>} 
-gpgpu_cache:dl1     32:128:4,L:L:m:N:H,A:32:8,8 # per-shader L1 data cache config  {<nsets>:<bsize>:<assoc>,<rep>:<wr>:<alloc>:<wr_alloc>,<mshr>:<N>:<merge>,<mq> | none}
-gpgpu_cache:dl1PrefL1                 none # per-shader L1 data cache config  {<nsets>:<bsize>:<assoc>,<rep>:<wr>:<alloc>:<wr_alloc>,<mshr>:<N>:<merge>,<mq> | none}
-gpgpu_cache:dl1PreShared                 none # per-shader L1 data cache config  {<nsets>:<bsize>:<assoc>,<rep>:<wr>:<alloc>:<wr_alloc>,<mshr>:<N>:<merge>,<mq> | none}
-gmem_skip_L1D                          0 # global memory access skip L1D cache (implements -Xptxas -dlcm=cg, default=no skip)
-gpgpu_perfect_mem                      0 # enable perfect memory mode (no cache miss)
-n_regfile_gating_group                    4 # group of lanes that should be read/written together)
-gpgpu_clock_gated_reg_file                    0 # enable clock gated reg file for power calculations
-gpgpu_clock_gated_lanes                    0 # enable clock gated lanes for power calculations
-gpgpu_shader_registers                32768 # Number of registers per shader core. Limits number of concurrent CTAs. (default 8192)
-gpgpu_shader_cta                       8 # Maximum number of concurrent CTAs in shader (default 8)
-gpgpu_num_cta_barriers                   16 # Maximum number of named barriers per CTA (default 16)
-gpgpu_n_clusters                      15 # number of processing clusters
-gpgpu_n_cores_per_cluster                    1 # number of simd cores per cluster
-gpgpu_n_cluster_ejection_buffer_size                    8 # number of packets in ejection buffer
-gpgpu_n_ldst_response_buffer_size                    2 # number of response packets in ld/st unit ejection buffer
-gpgpu_shmem_size                   16384 # Size of shared memory per shader core (default 16kB)
-gpgpu_shmem_size                   49152 # Size of shared memory per shader core (default 16kB)
-gpgpu_shmem_size_PrefL1                16384 # Size of shared memory per shader core (default 16kB)
-gpgpu_shmem_size_PrefShared                16384 # Size of shared memory per shader core (default 16kB)
-gpgpu_shmem_num_banks                   32 # Number of banks in the shared memory in each shader core (default 16)
-gpgpu_shmem_limited_broadcast                    0 # Limit shared memory to do one broadcast per cycle (default on)
-gpgpu_shmem_warp_parts                    1 # Number of portions a warp is divided into for shared memory bank conflict check 
-gpgpu_warpdistro_shader                   -1 # Specify which shader core to collect the warp size distribution from
-gpgpu_warp_issue_shader                    0 # Specify which shader core to collect the warp issue distribution from
-gpgpu_local_mem_map                    1 # Mapping from local memory space address to simulated GPU physical address space (default = enabled)
-gpgpu_num_reg_banks                   16 # Number of register banks (default = 8)
-gpgpu_reg_bank_use_warp_id                    0 # Use warp ID in mapping registers to banks (default = off)
-gpgpu_operand_collector_num_units_sp                    6 # number of collector units (default = 4)
-gpgpu_operand_collector_num_units_sfu                    8 # number of collector units (default = 4)
-gpgpu_operand_collector_num_units_mem                    2 # number of collector units (default = 2)
-gpgpu_operand_collector_num_units_gen                    0 # number of collector units (default = 0)
-gpgpu_operand_collector_num_in_ports_sp                    2 # number of collector unit in ports (default = 1)
-gpgpu_operand_collector_num_in_ports_sfu                    1 # number of collector unit in ports (default = 1)
-gpgpu_operand_collector_num_in_ports_mem                    1 # number of collector unit in ports (default = 1)
-gpgpu_operand_collector_num_in_ports_gen                    0 # number of collector unit in ports (default = 0)
-gpgpu_operand_collector_num_out_ports_sp                    2 # number of collector unit in ports (default = 1)
-gpgpu_operand_collector_num_out_ports_sfu                    1 # number of collector unit in ports (default = 1)
-gpgpu_operand_collector_num_out_ports_mem                    1 # number of collector unit in ports (default = 1)
-gpgpu_operand_collector_num_out_ports_gen                    0 # number of collector unit in ports (default = 0)
-gpgpu_coalesce_arch                   13 # Coalescing arch (default = 13, anything else is off for now)
-gpgpu_num_sched_per_core                    2 # Number of warp schedulers per core
-gpgpu_max_insn_issue_per_warp                    1 # Max number of instructions that can be issued per warp in one cycle by scheduler
-gpgpu_simt_core_sim_order                    1 # Select the simulation order of cores in a cluster (0=Fix, 1=Round-Robin)
-gpgpu_pipeline_widths        2,1,1,2,1,1,2 # Pipeline widths ID_OC_SP,ID_OC_SFU,ID_OC_MEM,OC_EX_SP,OC_EX_SFU,OC_EX_MEM,EX_WB
-gpgpu_num_sp_units                     2 # Number of SP units (default=1)
-gpgpu_num_sfu_units                    1 # Number of SF units (default=1)
-gpgpu_num_mem_units                    1 # Number if ldst units (default=1) WARNING: not hooked up to anything
-gpgpu_scheduler                      gto # Scheduler configuration: < lrr | gto | two_level_active > If two_level_active:<num_active_warps>:<inner_prioritization>:<outer_prioritization>For complete list of prioritization values see shader.h enum scheduler_prioritization_typeDefault: gto
-gpgpu_dram_scheduler                    1 # 0 = fifo, 1 = FR-FCFS (defaul)
-gpgpu_dram_partition_queues              8:8:8:8 # i2$:$2d:d2$:$2i
-l2_ideal                               0 # Use a ideal L2 cache that always hit
-gpgpu_cache:dl2     64:128:8,L:B:m:W:L,A:32:4,4:0,32 # unified banked L2 data cache config  {<nsets>:<bsize>:<assoc>,<rep>:<wr>:<alloc>:<wr_alloc>,<mshr>:<N>:<merge>,<mq>}
-gpgpu_cache:dl2_texture_only                    0 # L2 cache used for texture only
-gpgpu_n_mem                            6 # number of memory modules (e.g. memory controllers) in gpu
-gpgpu_n_sub_partition_per_mchannel                    2 # number of memory subpartition in each memory module
-gpgpu_n_mem_per_ctrlr                    2 # number of memory chips per memory controller
-gpgpu_memlatency_stat                   14 # track and display latency statistics 0x2 enables MC, 0x4 enables queue logs
-gpgpu_frfcfs_dram_sched_queue_size                   16 # 0 = unlimited (default); # entries per chip
-gpgpu_dram_return_queue_size                   84 # 0 = unlimited (default); # entries per chip
-gpgpu_dram_buswidth                    4 # default = 4 bytes (8 bytes per cycle at DDR)
-gpgpu_dram_burst_length                    8 # Burst length of each DRAM request (default = 4 data bus cycle)
-dram_data_command_freq_ratio                    4 # Frequency ratio between DRAM data bus and command bus (default = 2 times, i.e. DDR)
-gpgpu_dram_timing_opt nbk=16:CCD=2:RRD=6:RCD=12:RAS=28:RP=12:RC=40: CL=12:WL=4:CDLR=5:WR=12:nbkgrp=4:CCDL=3:RTPL=2 # DRAM timing parameters = {nbk:tCCD:tRRD:tRCD:tRAS:tRP:tRC:CL:WL:tCDLR:tWR:nbkgrp:tCCDL:tRTPL}
-rop_latency                          120 # ROP queue latency (default 85)
-dram_latency                         100 # DRAM latency (default 30)
-gpgpu_mem_addr_mapping dramid@8;00000000.00000000.00000000.00000000.0000RRRR.RRRRRRRR.BBBCCCCB.CCSSSSSS # mapping memory address to dram model {dramid@<start bit>;<memory address map>}
-gpgpu_mem_addr_test                    0 # run sweep test to check address mapping for aliased address
-gpgpu_mem_address_mask                    1 # 0 = old addressing mask, 1 = new addressing mask, 2 = new add. mask + flipped bank sel and chip sel bits
-gpuwattch_xml_file  gpuwattch_gtx480.xml # GPUWattch XML file
-power_simulation_enabled                    1 # Turn on power simulator (1=On, 0=Off)
-power_per_cycle_dump                    0 # Dump detailed power output each cycle
-power_trace_enabled                    0 # produce a file for the power trace (1=On, 0=Off)
-power_trace_zlevel                     6 # Compression level of the power trace output log (0=no comp, 9=highest)
-steady_power_levels_enabled                    0 # produce a file for the steady power levels (1=On, 0=Off)
-steady_state_definition                  8:4 # allowed deviation:number of samples
-gpgpu_max_cycle                        0 # terminates gpu simulation early (0 = no limit)
-gpgpu_max_insn                         0 # terminates gpu simulation early (0 = no limit)
-gpgpu_max_cta                          0 # terminates gpu simulation early (0 = no limit)
-gpgpu_runtime_stat                   500 # display runtime statistics such as dram utilization {<freq>:<flag>}
-liveness_message_freq                    1 # Minimum number of seconds between simulation liveness messages (0 = always print)
-gpgpu_flush_l1_cache                    0 # Flush L1 cache at the end of each kernel call
-gpgpu_flush_l2_cache                    0 # Flush L2 cache at the end of each kernel call
-gpgpu_deadlock_detect                    1 # Stop the simulation at deadlock (1=on (default), 0=off)
-gpgpu_ptx_instruction_classification                    0 # if enabled will classify ptx instruction types per kernel (Max 255 kernels now)
-gpgpu_ptx_sim_mode                     0 # Select between Performance (default) or Functional simulation (1)
-gpgpu_clock_domains 700.0:700.0:700.0:700.0 # Clock Domain Frequencies in MhZ {<Core Clock>:<ICNT Clock>:<L2 Clock>:<DRAM Clock>}
-gpgpu_max_concurrent_kernel                    8 # maximum kernels that can run concurrently on GPU
-gpgpu_cflog_interval                    0 # Interval between each snapshot in control flow logger
-visualizer_enabled                     0 # Turn on visualizer output (1=On, 0=Off)
-visualizer_outputfile                 NULL # Specifies the output log file for visualizer
-visualizer_zlevel                      6 # Compression level of the visualizer output log (0=no comp, 9=highest)
-trace_enabled                          0 # Turn on traces
-trace_components                    none # comma seperated list of traces to enable. Complete list found in trace_streams.tup. Default none
-trace_sampling_core                    0 # The core which is printed using CORE_DPRINTF. Default 0
-trace_sampling_memory_partition                   -1 # The memory partition which is printed using MEMPART_DPRINTF. Default -1 (i.e. all)
-enable_ptx_file_line_stats                    1 # Turn on PTX source line statistic profiling. (1 = On)
-ptx_line_stats_filename gpgpu_inst_stats.txt # Output file for PTX source line statistics.
-save_embedded_ptx                      0 # saves ptx files embedded in binary as <n>.ptx
-keep                                   0 # keep intermediate files created by GPGPU-Sim when interfacing with external programs
-gpgpu_ptx_save_converted_ptxplus                    0 # Saved converted ptxplus to a file
-ptx_opcode_latency_int         4,13,4,5,145 # Opcode latencies for integers <ADD,MAX,MUL,MAD,DIV>Default 1,1,19,25,145
-ptx_opcode_latency_fp          4,13,4,5,39 # Opcode latencies for single precision floating points <ADD,MAX,MUL,MAD,DIV>Default 1,1,1,1,30
-ptx_opcode_latency_dp         8,19,8,8,330 # Opcode latencies for double precision floating points <ADD,MAX,MUL,MAD,DIV>Default 8,8,8,8,335
-ptx_opcode_initiation_int            1,2,2,1,8 # Opcode initiation intervals for integers <ADD,MAX,MUL,MAD,DIV>Default 1,1,4,4,32
-ptx_opcode_initiation_fp            1,2,1,1,4 # Opcode initiation intervals for single precision floating points <ADD,MAX,MUL,MAD,DIV>Default 1,1,1,1,5
-ptx_opcode_initiation_dp         8,16,8,8,130 # Opcode initiation intervals for double precision floating points <ADD,MAX,MUL,MAD,DIV>Default 8,8,8,8,130
DRAM Timing Options:
nbk                                    16 # number of banks
CCD                                     2 # column to column delay
RRD                                     6 # minimal delay between activation of rows in different banks
RCD                                    12 # row to column delay
RAS                                    28 # time needed to activate row
RP                                     12 # time needed to precharge (deactivate) row
RC                                     40 # row cycle time
CDLR                                    5 # switching from write to read (changes tWTR)
WR                                     12 # last data-in to row precharge
CL                                     12 # CAS latency
WL                                      4 # Write latency
nbkgrp                                  4 # number of bank groups
CCDL                                    3 # column to column delay between accesses to different bank groups
RTPL                                    2 # read to precharge delay between accesses to different bank groups
Total number of memory sub partition = 12
addr_dec_mask[CHIP]  = 0000000000000000 	high:64 low:0
addr_dec_mask[BK]    = 000000000000e100 	high:16 low:8
addr_dec_mask[ROW]   = 000000000fff0000 	high:28 low:16
addr_dec_mask[COL]   = 0000000000001eff 	high:13 low:0
addr_dec_mask[BURST] = 000000000000003f 	high:6 low:0
sub_partition_id_mask = 0000000000000100
GPGPU-Sim uArch: clock freqs: 700000000.000000:700000000.000000:700000000.000000:700000000.000000
GPGPU-Sim uArch: clock periods: 0.00000000142857142857:0.00000000142857142857:0.00000000142857142857:0.00000000142857142857
*** Initializing Memory Statistics ***
GPGPU-Sim uArch: interconnect node map (shaderID+MemID to icntID)
GPGPU-Sim uArch: Memory nodes ID start from index: 15
GPGPU-Sim uArch:    0   1   2   3   4
GPGPU-Sim uArch:    5   6   7   8   9
GPGPU-Sim uArch:   10  11  12  13  14
GPGPU-Sim uArch:   15  16  17  18  19
GPGPU-Sim uArch:   20  21  22  23  24
GPGPU-Sim uArch:   25  26
GPGPU-Sim uArch: interconnect node reverse map (icntID to shaderID+MemID)
GPGPU-Sim uArch: Memory nodes start from ID: 15
GPGPU-Sim uArch:    0   1   2   3   4
GPGPU-Sim uArch:    5   6   7   8   9
GPGPU-Sim uArch:   10  11  12  13  14
GPGPU-Sim uArch:   15  16  17  18  19
GPGPU-Sim uArch:   20  21  22  23  24
GPGPU-Sim uArch:   25  26
5823297ec22ceb7244fb68f6724e345c  /home/gpgpu-sim/Documents/Dynamic_GPU_Cache_Bypass_Project/benchmarks/test/particlefilter_float-rodinia-3.1
GPGPU-Sim uArch: performance model initialization complete.
GPGPU-Sim PTX: __cudaRegisterFatBinary, fat_cubin_handle = 1, filename=ex_particle_CUDA_float_seq.cu
self exe links to: /home/gpgpu-sim/Documents/Dynamic_GPU_Cache_Bypass_Project/benchmarks/test/particlefilter_float-rodinia-3.1
Running md5sum using "md5sum /home/gpgpu-sim/Documents/Dynamic_GPU_Cache_Bypass_Project/benchmarks/test/particlefilter_float-rodinia-3.1 "
Running cuobjdump using "$CUDA_INSTALL_PATH/bin/cuobjdump -ptx -elf -sass /home/gpgpu-sim/Documents/Dynamic_GPU_Cache_Bypass_Project/benchmarks/test/particlefilter_float-rodinia-3.1 > _cuobjdump_complete_output_UnkTQI"
Parsing file _cuobjdump_complete_output_UnkTQI
######### cuobjdump parser ########
## Adding new section PTX
Adding ptx filename: _cuobjdump_1.ptx
Adding arch: sm_30
Adding identifier: ex_particle_CUDA_float_seq.cu
## Adding new section ELF
Adding arch: sm_30
Adding identifier: ex_particle_CUDA_float_seq.cu
## Adding new section PTX
Adding ptx filename: _cuobjdump_2.ptx
Adding arch: sm_13
Adding identifier: ex_particle_CUDA_float_seq.cu
## Adding new section ELF
Adding arch: sm_13
Adding identifier: ex_particle_CUDA_float_seq.cu
## Adding new section ELF
Adding arch: sm_20
Adding identifier: ex_particle_CUDA_float_seq.cu
## Adding new section PTX
Adding ptx filename: _cuobjdump_3.ptx
Adding arch: sm_20
Adding identifier: ex_particle_CUDA_float_seq.cu
## Adding new section ELF
Adding arch: sm_10
Adding identifier: ex_particle_CUDA_float_seq.cu
## Adding new section PTX
Adding ptx filename: _cuobjdump_4.ptx
Adding arch: sm_10
Adding identifier: ex_particle_CUDA_float_seq.cu
Done parsing!!!
GPGPU-Sim PTX: __cudaRegisterFunction _Z17likelihood_kernelPdS_S_S_S_PiS0_S_PhS_S_iiiiiiS0_S_ : hostFun 0x0x402740, fat_cubin_handle = 1
GPGPU-Sim PTX: allocating constant region for "__cudart_i2opi_d" from 0x100 to 0x190 (global memory space) 1
GPGPU-Sim PTX: allocating stack frame region for .param "func_retval0" from 0x0 to 0x8
GPGPU-Sim PTX: allocating stack frame region for .param "__internal_trig_reduction_slowpathd_param_0" from 0x8 to 0x10
GPGPU-Sim PTX: allocating stack frame region for .param "__internal_trig_reduction_slowpathd_param_1" from 0x10 to 0x18
GPGPU-Sim PTX: allocating stack frame region for .local "__local_depot0" from 0x80 to 0xa8
GPGPU-Sim PTX: Warning -- ignoring pragma 'nounroll'
GPGPU-Sim PTX: instruction assembly for function '__internal_trig_reduction_slowpathd'...   done.
GPGPU-Sim PTX: finding reconvergence points for '__internal_trig_reduction_slowpathd'...
GPGPU-Sim PTX: Finding dominators for '__internal_trig_reduction_slowpathd'...
GPGPU-Sim PTX: Finding immediate dominators for '__internal_trig_reduction_slowpathd'...
GPGPU-Sim PTX: Finding postdominators for '__internal_trig_reduction_slowpathd'...
GPGPU-Sim PTX: Finding immediate postdominators for '__internal_trig_reduction_slowpathd'...
GPGPU-Sim PTX: pre-decoding instructions for '__internal_trig_reduction_slowpathd'...
GPGPU-Sim PTX: reconvergence points for __internal_trig_reduction_slowpathd...
GPGPU-Sim PTX:  1 (potential) branch divergence @  PC=0x0a0 (_1.ptx:66) @%p1 bra BB0_2;
GPGPU-Sim PTX:    immediate post dominator      @  PC=0x158 (_1.ptx:105) mov.u32 %r21, 1;
GPGPU-Sim PTX:  2 (potential) branch divergence @  PC=0x0b0 (_1.ptx:69) bra.uni BB0_4;
GPGPU-Sim PTX:    immediate post dominator      @  PC=0x158 (_1.ptx:105) mov.u32 %r21, 1;
GPGPU-Sim PTX:  3 (potential) branch divergence @  PC=0x150 (_1.ptx:102) @%p3 bra BB0_3;
GPGPU-Sim PTX:    immediate post dominator      @  PC=0x158 (_1.ptx:105) mov.u32 %r21, 1;
GPGPU-Sim PTX:  4 (potential) branch divergence @  PC=0x1b0 (_1.ptx:121) @%p4 bra BB0_6;
GPGPU-Sim PTX:    immediate post dominator      @  PC=0x200 (_1.ptx:138) shr.u64 %rl49, %rl75, 62;
GPGPU-Sim PTX:  5 (potential) branch divergence @  PC=0x280 (_1.ptx:161) @%p6 bra BB0_8;
GPGPU-Sim PTX:    immediate post dominator      @  PC=0x2d0 (_1.ptx:181) clz.b64 %r11, %rl79;
GPGPU-Sim PTX:  6 (potential) branch divergence @  PC=0x2c0 (_1.ptx:174) bra.uni BB0_9;
GPGPU-Sim PTX:    immediate post dominator      @  PC=0x2d0 (_1.ptx:181) clz.b64 %r11, %rl79;
GPGPU-Sim PTX:  7 (potential) branch divergence @  PC=0x2e0 (_1.ptx:184) @%p8 bra BB0_11;
GPGPU-Sim PTX:    immediate post dominator      @  PC=0x310 (_1.ptx:195) mov.u64 %rl58, -3958705157555305931;
GPGPU-Sim PTX: ... end of reconvergence points for __internal_trig_reduction_slowpathd
GPGPU-Sim PTX: ... done pre-decoding instructions for '__internal_trig_reduction_slowpathd'.
GPGPU-Sim PTX: allocating stack frame region for .param "func_retval0" from 0x0 to 0x8
GPGPU-Sim PTX: allocating stack frame region for .param "_Z17calcLikelihoodSumPhPiii_param_0" from 0x8 to 0x10
GPGPU-Sim PTX: allocating stack frame region for .param "_Z17calcLikelihoodSumPhPiii_param_1" from 0x10 to 0x18
GPGPU-Sim PTX: allocating stack frame region for .param "_Z17calcLikelihoodSumPhPiii_param_2" from 0x18 to 0x1c
GPGPU-Sim PTX: allocating stack frame region for .param "_Z17calcLikelihoodSumPhPiii_param_3" from 0x1c to 0x20
GPGPU-Sim PTX: instruction assembly for function '_Z17calcLikelihoodSumPhPiii'...   done.
GPGPU-Sim PTX: finding reconvergence points for '_Z17calcLikelihoodSumPhPiii'...
GPGPU-Sim PTX: Finding dominators for '_Z17calcLikelihoodSumPhPiii'...
GPGPU-Sim PTX: Finding immediate dominators for '_Z17calcLikelihoodSumPhPiii'...
GPGPU-Sim PTX: Finding postdominators for '_Z17calcLikelihoodSumPhPiii'...
GPGPU-Sim PTX: Finding immediate postdominators for '_Z17calcLikelihoodSumPhPiii'...
GPGPU-Sim PTX: pre-decoding instructions for '_Z17calcLikelihoodSumPhPiii'...
GPGPU-Sim PTX: reconvergence points for _Z17calcLikelihoodSumPhPiii...
GPGPU-Sim PTX:  1 (potential) branch divergence @  PC=0x3d8 (_1.ptx:245) @%p3 bra BB1_2;
GPGPU-Sim PTX:    immediate post dominator      @  PC=0x5c8 (_1.ptx:354) st.param.f64[func_retval0+0], %fd30;
GPGPU-Sim PTX:  2 (potential) branch divergence @  PC=0x3e8 (_1.ptx:248) bra.uni BB1_10;
GPGPU-Sim PTX:    immediate post dominator      @  PC=0x5c8 (_1.ptx:354) st.param.f64[func_retval0+0], %fd30;
GPGPU-Sim PTX:  3 (potential) branch divergence @  PC=0x4b8 (_1.ptx:289) @%p2 bra BB1_6;
GPGPU-Sim PTX:    immediate post dominator      @  PC=0x508 (_1.ptx:309) add.s32 %r20, %r6, -228;
GPGPU-Sim PTX:  4 (potential) branch divergence @  PC=0x500 (_1.ptx:306) @%p5 bra BB1_5;
GPGPU-Sim PTX:    immediate post dominator      @  PC=0x508 (_1.ptx:309) add.s32 %r20, %r6, -228;
GPGPU-Sim PTX:  5 (potential) branch divergence @  PC=0x528 (_1.ptx:316) @%p2 bra BB1_9;
GPGPU-Sim PTX:    immediate post dominator      @  PC=0x588 (_1.ptx:339) sub.f64 %fd24, %fd27, %fd29;
GPGPU-Sim PTX:  6 (potential) branch divergence @  PC=0x580 (_1.ptx:335) @%p7 bra BB1_8;
GPGPU-Sim PTX:    immediate post dominator      @  PC=0x588 (_1.ptx:339) sub.f64 %fd24, %fd27, %fd29;
GPGPU-Sim PTX:  7 (potential) branch divergence @  PC=0x5c0 (_1.ptx:350) @%p8 bra BB1_3;
GPGPU-Sim PTX:    immediate post dominator      @  PC=0x5c8 (_1.ptx:354) st.param.f64[func_retval0+0], %fd30;
GPGPU-Sim PTX: ... end of reconvergence points for _Z17calcLikelihoodSumPhPiii
GPGPU-Sim PTX: ... done pre-decoding instructions for '_Z17calcLikelihoodSumPhPiii'.
GPGPU-Sim PTX: allocating stack frame region for .param "_Z7cdfCalcPdS_i_param_0" from 0x0 to 0x8
GPGPU-Sim PTX: allocating stack frame region for .param "_Z7cdfCalcPdS_i_param_1" from 0x8 to 0x10
GPGPU-Sim PTX: allocating stack frame region for .param "_Z7cdfCalcPdS_i_param_2" from 0x10 to 0x14
GPGPU-Sim PTX: instruction assembly for function '_Z7cdfCalcPdS_i'...   done.
GPGPU-Sim PTX: finding reconvergence points for '_Z7cdfCalcPdS_i'...
GPGPU-Sim PTX: Finding dominators for '_Z7cdfCalcPdS_i'...
GPGPU-Sim PTX: Finding immediate dominators for '_Z7cdfCalcPdS_i'...
GPGPU-Sim PTX: Finding postdominators for '_Z7cdfCalcPdS_i'...
GPGPU-Sim PTX: Finding immediate postdominators for '_Z7cdfCalcPdS_i'...
GPGPU-Sim PTX: pre-decoding instructions for '_Z7cdfCalcPdS_i'...
GPGPU-Sim PTX: reconvergence points for _Z7cdfCalcPdS_i...
GPGPU-Sim PTX:  1 (potential) branch divergence @  PC=0x608 (_1.ptx:378) @%p1 bra BB2_3;
GPGPU-Sim PTX:    immediate post dominator      @  PC=0x698 (_1.ptx:408) ret;
GPGPU-Sim PTX:  2 (potential) branch divergence @  PC=0x690 (_1.ptx:404) @%p2 bra BB2_2;
GPGPU-Sim PTX:    immediate post dominator      @  PC=0x698 (_1.ptx:408) ret;
GPGPU-Sim PTX: ... end of reconvergence points for _Z7cdfCalcPdS_i
GPGPU-Sim PTX: ... done pre-decoding instructions for '_Z7cdfCalcPdS_i'.
GPGPU-Sim PTX: allocating stack frame region for .param "func_retval0" from 0x0 to 0x8
GPGPU-Sim PTX: allocating stack frame region for .param "_Z7d_randuPii_param_0" from 0x8 to 0x10
GPGPU-Sim PTX: allocating stack frame region for .param "_Z7d_randuPii_param_1" from 0x10 to 0x14
GPGPU-Sim PTX: instruction assembly for function '_Z7d_randuPii'...   done.
GPGPU-Sim PTX: finding reconvergence points for '_Z7d_randuPii'...
GPGPU-Sim PTX: Finding dominators for '_Z7d_randuPii'...
GPGPU-Sim PTX: Finding immediate dominators for '_Z7d_randuPii'...
GPGPU-Sim PTX: Finding postdominators for '_Z7d_randuPii'...
GPGPU-Sim PTX: Finding immediate postdominators for '_Z7d_randuPii'...
GPGPU-Sim PTX: pre-decoding instructions for '_Z7d_randuPii'...
GPGPU-Sim PTX: reconvergence points for _Z7d_randuPii...
GPGPU-Sim PTX: ... end of reconvergence points for _Z7d_randuPii
GPGPU-Sim PTX: ... done pre-decoding instructions for '_Z7d_randuPii'.
GPGPU-Sim PTX: allocating stack frame region for .param "func_retval0" from 0x0 to 0x8
GPGPU-Sim PTX: allocating stack frame region for .param "_Z7d_randnPii_param_0" from 0x8 to 0x10
GPGPU-Sim PTX: allocating stack frame region for .param "_Z7d_randnPii_param_1" from 0x10 to 0x14
GPGPU-Sim PTX: allocating stack frame region for .local "__local_depot4" from 0x14 to 0x18
GPGPU-Sim PTX: allocating stack frame region for .param "param0" from 0x18 to 0x20
GPGPU-Sim PTX: allocating stack frame region for .param "param1" from 0x20 to 0x28
GPGPU-Sim PTX: allocating stack frame region for .param "retval0" from 0x28 to 0x30
GPGPU-Sim PTX: Warning %temp was declared previous at _1.ptx:634 skipping new declaration
GPGPU-Sim PTX: Warning %temp was declared previous at _1.ptx:634 skipping new declaration
GPGPU-Sim PTX: Warning %temp was declared previous at _1.ptx:634 skipping new declaration
GPGPU-Sim PTX: Warning %temp was declared previous at _1.ptx:634 skipping new declaration
GPGPU-Sim PTX: Warning %temp was declared previous at _1.ptx:634 skipping new declaration
GPGPU-Sim PTX: instruction assembly for function '_Z7d_randnPii'...   done.
GPGPU-Sim PTX: finding reconvergence points for '_Z7d_randnPii'...
GPGPU-Sim PTX: Finding dominators for '_Z7d_randnPii'...
GPGPU-Sim PTX: Finding immediate dominators for '_Z7d_randnPii'...
GPGPU-Sim PTX: Finding postdominators for '_Z7d_randnPii'...
GPGPU-Sim PTX: Finding immediate postdominators for '_Z7d_randnPii'...
GPGPU-Sim PTX: pre-decoding instructions for '_Z7d_randnPii'...
GPGPU-Sim PTX: reconvergence points for _Z7d_randnPii...
GPGPU-Sim PTX:  1 (potential) branch divergence @  PC=0x840 (_1.ptx:510) @%p1 bra BB4_7;
GPGPU-Sim PTX:    immediate post dominator      @  PC=0xa38 (_1.ptx:635) mov.b64 {%temp, %r44}, %fd116;
GPGPU-Sim PTX:  2 (potential) branch divergence @  PC=0x8a8 (_1.ptx:533) @%p2 bra BB4_2;
GPGPU-Sim PTX:    immediate post dominator      @  PC=0x8f0 (_1.ptx:562) add.s32 %r4, %r43, 1;
GPGPU-Sim PTX:  3 (potential) branch divergence @  PC=0x8b0 (_1.ptx:534) bra.uni BB4_3;
GPGPU-Sim PTX:    immediate post dominator      @  PC=0x8f0 (_1.ptx:562) add.s32 %r4, %r43, 1;
GPGPU-Sim PTX:  4 (potential) branch divergence @  PC=0x910 (_1.ptx:569) @%p3 bra BB4_5;
GPGPU-Sim PTX:    immediate post dominator      @  PC=0xa00 (_1.ptx:619) and.b32 %r33, %r4, 2;
GPGPU-Sim PTX:  5 (potential) branch divergence @  PC=0x990 (_1.ptx:593) bra.uni BB4_6;
GPGPU-Sim PTX:    immediate post dominator      @  PC=0xa00 (_1.ptx:619) and.b32 %r33, %r4, 2;
GPGPU-Sim PTX:  6 (potential) branch divergence @  PC=0xa20 (_1.ptx:624) bra.uni BB4_8;
GPGPU-Sim PTX:    immediate post dominator      @  PC=0xa38 (_1.ptx:635) mov.b64 {%temp, %r44}, %fd116;
GPGPU-Sim PTX:  7 (potential) branch divergence @  PC=0xa60 (_1.ptx:647) @%p7 bra BB4_15;
GPGPU-Sim PTX:    immediate post dominator      @  PC=0xcf0 (_1.ptx:817) mul.f64 %fd109, %fd116, 0dC000000000000000;
GPGPU-Sim PTX:  8 (potential) branch divergence @  PC=0xa78 (_1.ptx:653) @%p8 bra BB4_14;
GPGPU-Sim PTX:    immediate post dominator      @  PC=0xcf0 (_1.ptx:817) mul.f64 %fd109, %fd116, 0dC000000000000000;
GPGPU-Sim PTX:  9 (potential) branch divergence @  PC=0xa88 (_1.ptx:657) @%p9 bra BB4_13;
GPGPU-Sim PTX:    immediate post dominator      @  PC=0xcf0 (_1.ptx:817) mul.f64 %fd109, %fd116, 0dC000000000000000;
GPGPU-Sim PTX: 10 (potential) branch divergence @  PC=0xa98 (_1.ptx:661) @%p10 bra BB4_21;
GPGPU-Sim PTX:    immediate post dominator      @  PC=0xcf0 (_1.ptx:817) mul.f64 %fd109, %fd116, 0dC000000000000000;
GPGPU-Sim PTX: 11 (potential) branch divergence @  PC=0xab0 (_1.ptx:666) bra.uni BB4_21;
GPGPU-Sim PTX:    immediate post dominator      @  PC=0xcf0 (_1.ptx:817) mul.f64 %fd109, %fd116, 0dC000000000000000;
GPGPU-Sim PTX: 12 (potential) branch divergence @  PC=0xac0 (_1.ptx:671) bra.uni BB4_21;
GPGPU-Sim PTX:    immediate post dominator      @  PC=0xcf0 (_1.ptx:817) mul.f64 %fd109, %fd116, 0dC000000000000000;
GPGPU-Sim PTX: 13 (potential) branch divergence @  PC=0xad0 (_1.ptx:676) bra.uni BB4_21;
GPGPU-Sim PTX:    immediate post dominator      @  PC=0xcf0 (_1.ptx:817) mul.f64 %fd109, %fd116, 0dC000000000000000;
GPGPU-Sim PTX: 14 (potential) branch divergence @  PC=0xae0 (_1.ptx:681) @%p11 bra BB4_17;
GPGPU-Sim PTX:    immediate post dominator      @  PC=0xb18 (_1.ptx:703) shr.s32 %r36, %r44, 20;
GPGPU-Sim PTX: 15 (potential) branch divergence @  PC=0xaf0 (_1.ptx:684) bra.uni BB4_18;
GPGPU-Sim PTX:    immediate post dominator      @  PC=0xb18 (_1.ptx:703) shr.s32 %r36, %r44, 20;
GPGPU-Sim PTX: 16 (potential) branch divergence @  PC=0xb48 (_1.ptx:712) @%p12 bra BB4_19;
GPGPU-Sim PTX:    immediate post dominator      @  PC=0xb80 (_1.ptx:734) add.f64 %fd67, %fd115, 0d3FF0000000000000;
GPGPU-Sim PTX: 17 (potential) branch divergence @  PC=0xb50 (_1.ptx:713) bra.uni BB4_20;
GPGPU-Sim PTX:    immediate post dominator      @  PC=0xb80 (_1.ptx:734) add.f64 %fd67, %fd115, 0d3FF0000000000000;
GPGPU-Sim PTX: ... end of reconvergence points for _Z7d_randnPii
GPGPU-Sim PTX: ... done pre-decoding instructions for '_Z7d_randnPii'.
GPGPU-Sim PTX: allocating stack frame region for .param "func_retval0" from 0x0 to 0x8
GPGPU-Sim PTX: allocating stack frame region for .param "_Z13updateWeightsPdS_i_param_0" from 0x8 to 0x10
GPGPU-Sim PTX: allocating stack frame region for .param "_Z13updateWeightsPdS_i_param_1" from 0x10 to 0x18
GPGPU-Sim PTX: allocating stack frame region for .param "_Z13updateWeightsPdS_i_param_2" from 0x18 to 0x1c
GPGPU-Sim PTX: instruction assembly for function '_Z13updateWeightsPdS_i'...   done.
GPGPU-Sim PTX: finding reconvergence points for '_Z13updateWeightsPdS_i'...
GPGPU-Sim PTX: Finding dominators for '_Z13updateWeightsPdS_i'...
GPGPU-Sim PTX: Finding immediate dominators for '_Z13updateWeightsPdS_i'...
GPGPU-Sim PTX: Finding postdominators for '_Z13updateWeightsPdS_i'...
GPGPU-Sim PTX: Finding immediate postdominators for '_Z13updateWeightsPdS_i'...
GPGPU-Sim PTX: pre-decoding instructions for '_Z13updateWeightsPdS_i'...
GPGPU-Sim PTX: reconvergence points for _Z13updateWeightsPdS_i...
GPGPU-Sim PTX:  1 (potential) branch divergence @  PC=0xd28 (_1.ptx:841) @%p1 bra BB5_2;
GPGPU-Sim PTX:    immediate post dominator      @  PC=0xfb8 (_1.ptx:981) st.param.f64[func_retval0+0], %fd50;
GPGPU-Sim PTX:  2 (potential) branch divergence @  PC=0xd38 (_1.ptx:844) bra.uni BB5_9;
GPGPU-Sim PTX:    immediate post dominator      @  PC=0xfb8 (_1.ptx:981) st.param.f64[func_retval0+0], %fd50;
GPGPU-Sim PTX:  3 (potential) branch divergence @  PC=0xda0 (_1.ptx:869) @%p4 bra BB5_5;
GPGPU-Sim PTX:    immediate post dominator      @  PC=0xf70 (_1.ptx:966) mul.f64 %fd48, %fd3, %fd49;
GPGPU-Sim PTX:  4 (potential) branch divergence @  PC=0xdd8 (_1.ptx:880) bra.uni BB5_8;
GPGPU-Sim PTX:    immediate post dominator      @  PC=0xf70 (_1.ptx:966) mul.f64 %fd48, %fd3, %fd49;
GPGPU-Sim PTX:  5 (potential) branch divergence @  PC=0xee8 (_1.ptx:935) @%p7 bra BB5_7;
GPGPU-Sim PTX:    immediate post dominator      @  PC=0xf70 (_1.ptx:966) mul.f64 %fd48, %fd3, %fd49;
GPGPU-Sim PTX:  6 (potential) branch divergence @  PC=0xf50 (_1.ptx:955) bra.uni BB5_8;
GPGPU-Sim PTX:    immediate post dominator      @  PC=0xf70 (_1.ptx:966) mul.f64 %fd48, %fd3, %fd49;
GPGPU-Sim PTX:  7 (potential) branch divergence @  PC=0xfb0 (_1.ptx:977) @%p9 bra BB5_3;
GPGPU-Sim PTX:    immediate post dominator      @  PC=0xfb8 (_1.ptx:981) st.param.f64[func_retval0+0], %fd50;
GPGPU-Sim PTX: ... end of reconvergence points for _Z13updateWeightsPdS_i
GPGPU-Sim PTX: ... done pre-decoding instructions for '_Z13updateWeightsPdS_i'.
GPGPU-Sim PTX: allocating stack frame region for .param "func_retval0" from 0x0 to 0x4
GPGPU-Sim PTX: allocating stack frame region for .param "_Z12findIndexBinPdiid_param_0" from 0x4 to 0xc
GPGPU-Sim PTX: allocating stack frame region for .param "_Z12findIndexBinPdiid_param_1" from 0xc to 0x10
GPGPU-Sim PTX: allocating stack frame region for .param "_Z12findIndexBinPdiid_param_2" from 0x10 to 0x14
GPGPU-Sim PTX: allocating stack frame region for .param "_Z12findIndexBinPdiid_param_3" from 0x14 to 0x1c
GPGPU-Sim PTX: instruction assembly for function '_Z12findIndexBinPdiid'...   done.
GPGPU-Sim PTX: finding reconvergence points for '_Z12findIndexBinPdiid'...
GPGPU-Sim PTX: Finding dominators for '_Z12findIndexBinPdiid'...
GPGPU-Sim PTX: Finding immediate dominators for '_Z12findIndexBinPdiid'...
GPGPU-Sim PTX: Finding postdominators for '_Z12findIndexBinPdiid'...
GPGPU-Sim PTX: Finding immediate postdominators for '_Z12findIndexBinPdiid'...
GPGPU-Sim PTX: pre-decoding instructions for '_Z12findIndexBinPdiid'...
GPGPU-Sim PTX: reconvergence points for _Z12findIndexBinPdiid...
GPGPU-Sim PTX:  1 (potential) branch divergence @  PC=0xfe0 (_1.ptx:1002) @%p1 bra BB6_11;
GPGPU-Sim PTX:    immediate post dominator      @ 
GPGPU-Sim PTX:  2 (potential) branch divergence @  PC=0x1000 (_1.ptx:1010) @%p2 bra BB6_11;
GPGPU-Sim PTX:    immediate post dominator      @ 
GPGPU-Sim PTX:  3 (potential) branch divergence @  PC=0x1060 (_1.ptx:1027) @%p3 bra BB6_10;
GPGPU-Sim PTX:    immediate post dominator      @ 
GPGPU-Sim PTX:  4 (potential) branch divergence @  PC=0x1070 (_1.ptx:1031) @%p4 bra BB6_12;
GPGPU-Sim PTX:    immediate post dominator      @ 
GPGPU-Sim PTX:  5 (potential) branch divergence @  PC=0x1090 (_1.ptx:1038) @%p5 bra BB6_12;
GPGPU-Sim PTX:    immediate post dominator      @ 
GPGPU-Sim PTX:  6 (potential) branch divergence @  PC=0x10a8 (_1.ptx:1043) @%p6 bra BB6_10;
GPGPU-Sim PTX:    immediate post dominator      @ 
GPGPU-Sim PTX:  7 (potential) branch divergence @  PC=0x10d0 (_1.ptx:1050) @%p9 bra BB6_8;
GPGPU-Sim PTX:    immediate post dominator      @  PC=0x1130 (_1.ptx:1072) add.s32 %r19, %r27, 1;
GPGPU-Sim PTX:  8 (potential) branch divergence @  PC=0x10d8 (_1.ptx:1051) bra.uni BB6_9;
GPGPU-Sim PTX:    immediate post dominator      @  PC=0x1130 (_1.ptx:1072) add.s32 %r19, %r27, 1;
GPGPU-Sim PTX:  9 (potential) branch divergence @  PC=0x1128 (_1.ptx:1068) @%p12 bra BB6_8;
GPGPU-Sim PTX:    immediate post dominator      @  PC=0x1130 (_1.ptx:1072) add.s32 %r19, %r27, 1;
GPGPU-Sim PTX: 10 (potential) branch divergence @  PC=0x1178 (_1.ptx:1086) bra.uni BB6_2;
GPGPU-Sim PTX:    immediate post dominator      @  PC=0xff8 (_1.ptx:1009) setp.le.s32 %p2, %r25, %r26;
GPGPU-Sim PTX: ... end of reconvergence points for _Z12findIndexBinPdiid
GPGPU-Sim PTX: ... done pre-decoding instructions for '_Z12findIndexBinPdiid'.
GPGPU-Sim PTX: allocating stack frame region for .param "func_retval0" from 0x0 to 0x8
GPGPU-Sim PTX: allocating stack frame region for .param "_Z16dev_round_doubled_param_0" from 0x8 to 0x10
GPGPU-Sim PTX: instruction assembly for function '_Z16dev_round_doubled'...   done.
GPGPU-Sim PTX: finding reconvergence points for '_Z16dev_round_doubled'...
GPGPU-Sim PTX: Finding dominators for '_Z16dev_round_doubled'...
GPGPU-Sim PTX: Finding immediate dominators for '_Z16dev_round_doubled'...
GPGPU-Sim PTX: Finding postdominators for '_Z16dev_round_doubled'...
GPGPU-Sim PTX: Finding immediate postdominators for '_Z16dev_round_doubled'...
GPGPU-Sim PTX: pre-decoding instructions for '_Z16dev_round_doubled'...
GPGPU-Sim PTX: reconvergence points for _Z16dev_round_doubled...
GPGPU-Sim PTX: ... end of reconvergence points for _Z16dev_round_doubled
GPGPU-Sim PTX: ... done pre-decoding instructions for '_Z16dev_round_doubled'.
GPGPU-Sim PTX: instruction assembly for function '_Z17find_index_kernelPdS_S_S_S_S_S_i'...   done.
GPGPU-Sim PTX: finding reconvergence points for '_Z17find_index_kernelPdS_S_S_S_S_S_i'...
GPGPU-Sim PTX: Finding dominators for '_Z17find_index_kernelPdS_S_S_S_S_S_i'...
GPGPU-Sim PTX: Finding immediate dominators for '_Z17find_index_kernelPdS_S_S_S_S_S_i'...
GPGPU-Sim PTX: Finding postdominators for '_Z17find_index_kernelPdS_S_S_S_S_S_i'...
GPGPU-Sim PTX: Finding immediate postdominators for '_Z17find_index_kernelPdS_S_S_S_S_S_i'...
GPGPU-Sim PTX: pre-decoding instructions for '_Z17find_index_kernelPdS_S_S_S_S_S_i'...
GPGPU-Sim PTX: reconvergence points for _Z17find_index_kernelPdS_S_S_S_S_S_i...
GPGPU-Sim PTX:  1 (potential) branch divergence @  PC=0x1250 (_1.ptx:1153) @%p1 bra BB8_6;
GPGPU-Sim PTX:    immediate post dominator      @  PC=0x1340 (_1.ptx:1200) bar.sync 0;
GPGPU-Sim PTX:  2 (potential) branch divergence @  PC=0x1288 (_1.ptx:1165) @%p2 bra BB8_4;
GPGPU-Sim PTX:    immediate post dominator      @  PC=0x12d0 (_1.ptx:1181) setp.eq.s32 %p4, %r21, -1;
GPGPU-Sim PTX:  3 (potential) branch divergence @  PC=0x1298 (_1.ptx:1168) bra.uni BB8_5;
GPGPU-Sim PTX:    immediate post dominator      @  PC=0x12d0 (_1.ptx:1181) setp.eq.s32 %p4, %r21, -1;
GPGPU-Sim PTX:  4 (potential) branch divergence @  PC=0x12c8 (_1.ptx:1177) @%p3 bra BB8_7;
GPGPU-Sim PTX:    immediate post dominator      @  PC=0x12d0 (_1.ptx:1181) setp.eq.s32 %p4, %r21, -1;
GPGPU-Sim PTX:  5 (potential) branch divergence @  PC=0x1358 (_1.ptx:1207) bra.uni BB8_2;
GPGPU-Sim PTX:    immediate post dominator      @  PC=0x1278 (_1.ptx:1162) ld.param.u32 %r20, [_Z17find_index_kernelPdS_S_S_S_S_S_i_param_7];
GPGPU-Sim PTX: ... end of reconvergence points for _Z17find_index_kernelPdS_S_S_S_S_S_i
GPGPU-Sim PTX: ... done pre-decoding instructions for '_Z17find_index_kernelPdS_S_S_S_S_S_i'.
GPGPU-Sim PTX: allocating shared region for "__cuda_local_var_19424_36_non_const_u1" from 0x0 to 0x8 (shared memory space)
GPGPU-Sim PTX: allocating shared region for "__cuda_local_var_19424_40_non_const_sumWeights" from 0x8 to 0x10 (shared memory space)
GPGPU-Sim PTX: instruction assembly for function '_Z24normalize_weights_kernelPdiS_S_S_Pi'...   done.
GPGPU-Sim PTX: finding reconvergence points for '_Z24normalize_weights_kernelPdiS_S_S_Pi'...
GPGPU-Sim PTX: Finding dominators for '_Z24normalize_weights_kernelPdiS_S_S_Pi'...
GPGPU-Sim PTX: Finding immediate dominators for '_Z24normalize_weights_kernelPdiS_S_S_Pi'...
GPGPU-Sim PTX: Finding postdominators for '_Z24normalize_weights_kernelPdiS_S_S_Pi'...
GPGPU-Sim PTX: Finding immediate postdominators for '_Z24normalize_weights_kernelPdiS_S_S_Pi'...
GPGPU-Sim PTX: pre-decoding instructions for '_Z24normalize_weights_kernelPdiS_S_S_Pi'...
GPGPU-Sim PTX: reconvergence points for _Z24normalize_weights_kernelPdiS_S_S_Pi...
GPGPU-Sim PTX:  1 (potential) branch divergence @  PC=0x13e0 (_1.ptx:1248) @%p3 bra BB9_2;
GPGPU-Sim PTX:    immediate post dominator      @  PC=0x13f8 (_1.ptx:1256) bar.sync 0;
GPGPU-Sim PTX:  2 (potential) branch divergence @  PC=0x1418 (_1.ptx:1261) @%p4 bra BB9_4;
GPGPU-Sim PTX:    immediate post dominator      @  PC=0x1450 (_1.ptx:1275) bar.sync 0;
GPGPU-Sim PTX:  3 (potential) branch divergence @  PC=0x1460 (_1.ptx:1278) @%p5 bra BB9_9;
GPGPU-Sim PTX:    immediate post dominator      @  PC=0x15a0 (_1.ptx:1341) bar.sync 0;
GPGPU-Sim PTX:  4 (potential) branch divergence @  PC=0x1488 (_1.ptx:1286) @%p6 bra BB9_8;
GPGPU-Sim PTX:    immediate post dominator      @  PC=0x1508 (_1.ptx:1312) ld.param.u32 %r31, [_Z24normalize_weights_kernelPdiS_S_S_Pi_param_1];
GPGPU-Sim PTX:  5 (potential) branch divergence @  PC=0x1500 (_1.ptx:1309) @%p7 bra BB9_7;
GPGPU-Sim PTX:    immediate post dominator      @  PC=0x1508 (_1.ptx:1312) ld.param.u32 %r31, [_Z24normalize_weights_kernelPdiS_S_S_Pi_param_1];
GPGPU-Sim PTX:  6 (potential) branch divergence @  PC=0x15a8 (_1.ptx:1343) @!%p1 bra BB9_11;
GPGPU-Sim PTX:    immediate post dominator      @  PC=0x15c0 (_1.ptx:1351) bar.sync 0;
GPGPU-Sim PTX:  7 (potential) branch divergence @  PC=0x15c8 (_1.ptx:1353) @%p2 bra BB9_13;
GPGPU-Sim PTX:    immediate post dominator      @ 
GPGPU-Sim PTX: ... end of reconvergence points for _Z24normalize_weights_kernelPdiS_S_S_Pi
GPGPU-Sim PTX: ... done pre-decoding instructions for '_Z24normalize_weights_kernelPdiS_S_S_Pi'.
GPGPU-Sim PTX: instruction assembly for function '_Z10sum_kernelPdi'...   done.
GPGPU-Sim PTX: finding reconvergence points for '_Z10sum_kernelPdi'...
GPGPU-Sim PTX: Finding dominators for '_Z10sum_kernelPdi'...
GPGPU-Sim PTX: Finding immediate dominators for '_Z10sum_kernelPdi'...
GPGPU-Sim PTX: Finding postdominators for '_Z10sum_kernelPdi'...
GPGPU-Sim PTX: Finding immediate postdominators for '_Z10sum_kernelPdi'...
GPGPU-Sim PTX: pre-decoding instructions for '_Z10sum_kernelPdi'...
GPGPU-Sim PTX: reconvergence points for _Z10sum_kernelPdi...
GPGPU-Sim PTX:  1 (potential) branch divergence @  PC=0x1668 (_1.ptx:1398) @%p1 bra BB10_2;
GPGPU-Sim PTX:    immediate post dominator      @ 
GPGPU-Sim PTX:  2 (potential) branch divergence @  PC=0x16a8 (_1.ptx:1415) @%p2 bra BB10_4;
GPGPU-Sim PTX:    immediate post dominator      @  PC=0x1718 (_1.ptx:1441) st.global.f64 [%rl1], %fd10;
GPGPU-Sim PTX:  3 (potential) branch divergence @  PC=0x16b8 (_1.ptx:1418) bra.uni BB10_6;
GPGPU-Sim PTX:    immediate post dominator      @  PC=0x1718 (_1.ptx:1441) st.global.f64 [%rl1], %fd10;
GPGPU-Sim PTX:  4 (potential) branch divergence @  PC=0x1710 (_1.ptx:1437) @%p3 bra BB10_5;
GPGPU-Sim PTX:    immediate post dominator      @  PC=0x1718 (_1.ptx:1441) st.global.f64 [%rl1], %fd10;
GPGPU-Sim PTX: ... end of reconvergence points for _Z10sum_kernelPdi
GPGPU-Sim PTX: ... done pre-decoding instructions for '_Z10sum_kernelPdi'.
GPGPU-Sim PTX: allocating stack frame region for .local "__local_depot11" from 0x0 to 0x8
GPGPU-Sim PTX: allocating shared region for "__cuda_local_var_19475_36_non_const_buffer" from 0x0 to 0x1000 (shared memory space)
GPGPU-Sim PTX: allocating stack frame region for .param "param0" from 0x8 to 0x10
GPGPU-Sim PTX: allocating stack frame region for .param "param1" from 0x10 to 0x18
GPGPU-Sim PTX: allocating stack frame region for .param "retval0" from 0x18 to 0x20
GPGPU-Sim PTX: Warning %temp was declared previous at _1.ptx:1698 skipping new declaration
GPGPU-Sim PTX: Warning %temp was declared previous at _1.ptx:1698 skipping new declaration
GPGPU-Sim PTX: Warning %temp was declared previous at _1.ptx:1698 skipping new declaration
GPGPU-Sim PTX: Warning %temp was declared previous at _1.ptx:1698 skipping new declaration
GPGPU-Sim PTX: Warning %temp was declared previous at _1.ptx:1698 skipping new declaration
GPGPU-Sim PTX: Warning temp_param_reg was declared previous at _1.ptx:1606 skipping new declaration
GPGPU-Sim PTX: Warning param0 was declared previous at _1.ptx:1607 skipping new declaration
GPGPU-Sim PTX: Warning param1 was declared previous at _1.ptx:1610 skipping new declaration
GPGPU-Sim PTX: Warning retval0 was declared previous at _1.ptx:1612 skipping new declaration
GPGPU-Sim PTX: Warning %temp was declared previous at _1.ptx:1698 skipping new declaration
GPGPU-Sim PTX: Warning %temp was declared previous at _1.ptx:1698 skipping new declaration
GPGPU-Sim PTX: Warning %temp was declared previous at _1.ptx:1698 skipping new declaration
GPGPU-Sim PTX: Warning %temp was declared previous at _1.ptx:1698 skipping new declaration
GPGPU-Sim PTX: Warning %temp was declared previous at _1.ptx:1698 skipping new declaration
GPGPU-Sim PTX: Warning %temp was declared previous at _1.ptx:1698 skipping new declaration
GPGPU-Sim PTX: Warning %temp was declared previous at _1.ptx:1698 skipping new declaration
GPGPU-Sim PTX: instruction assembly for function '_Z17likelihood_kernelPdS_S_S_S_PiS0_S_PhS_S_iiiiiiS0_S_'...   done.
GPGPU-Sim PTX: finding reconvergence points for '_Z17likelihood_kernelPdS_S_S_S_PiS0_S_PhS_S_iiiiiiS0_S_'...
GPGPU-Sim PTX: Finding dominators for '_Z17likelihood_kernelPdS_S_S_S_PiS0_S_PhS_S_iiiiiiS0_S_'...
GPGPU-Sim PTX: Finding immediate dominators for '_Z17likelihood_kernelPdS_S_S_S_PiS0_S_PhS_S_iiiiiiS0_S_'...
GPGPU-Sim PTX: Finding postdominators for '_Z17likelihood_kernelPdS_S_S_S_PiS0_S_PhS_S_iiiiiiS0_S_'...
GPGPU-Sim PTX: Finding immediate postdominators for '_Z17likelihood_kernelPdS_S_S_S_PiS0_S_PhS_S_iiiiiiS0_S_'...
GPGPU-Sim PTX: pre-decoding instructions for '_Z17likelihood_kernelPdS_S_S_S_PiS0_S_PhS_S_iiiiiiS0_S_'...
GPGPU-Sim PTX: reconvergence points for _Z17likelihood_kernelPdS_S_S_S_PiS0_S_PhS_S_iiiiiiS0_S_...
GPGPU-Sim PTX:  1 (potential) branch divergence @  PC=0x17e0 (_1.ptx:1508) @%p4 bra BB11_44;
GPGPU-Sim PTX:    immediate post dominator      @  PC=0x2420 (_1.ptx:2261) bar.sync 0;
GPGPU-Sim PTX:  2 (potential) branch divergence @  PC=0x1950 (_1.ptx:1574) @%p5 bra BB11_8;
GPGPU-Sim PTX:    immediate post dominator      @  PC=0x1b48 (_1.ptx:1699) mov.b64 {%temp, %r232}, %fd318;
GPGPU-Sim PTX:  3 (potential) branch divergence @  PC=0x19b8 (_1.ptx:1597) @%p6 bra BB11_3;
GPGPU-Sim PTX:    immediate post dominator      @  PC=0x1a00 (_1.ptx:1626) add.s32 %r11, %r231, 1;
GPGPU-Sim PTX:  4 (potential) branch divergence @  PC=0x19c0 (_1.ptx:1598) bra.uni BB11_4;
GPGPU-Sim PTX:    immediate post dominator      @  PC=0x1a00 (_1.ptx:1626) add.s32 %r11, %r231, 1;
GPGPU-Sim PTX:  5 (potential) branch divergence @  PC=0x1a20 (_1.ptx:1633) @%p7 bra BB11_6;
GPGPU-Sim PTX:    immediate post dominator      @  PC=0x1b10 (_1.ptx:1683) and.b32 %r85, %r11, 2;
GPGPU-Sim PTX:  6 (potential) branch divergence @  PC=0x1aa0 (_1.ptx:1657) bra.uni BB11_7;
GPGPU-Sim PTX:    immediate post dominator      @  PC=0x1b10 (_1.ptx:1683) and.b32 %r85, %r11, 2;
GPGPU-Sim PTX:  7 (potential) branch divergence @  PC=0x1b30 (_1.ptx:1688) bra.uni BB11_9;
GPGPU-Sim PTX:    immediate post dominator      @  PC=0x1b48 (_1.ptx:1699) mov.b64 {%temp, %r232}, %fd318;
GPGPU-Sim PTX:  8 (potential) branch divergence @  PC=0x1b70 (_1.ptx:1711) @%p11 bra BB11_16;
GPGPU-Sim PTX:    immediate post dominator      @  PC=0x1e00 (_1.ptx:1881) mul.f64 %fd162, %fd318, 0dC000000000000000;
GPGPU-Sim PTX:  9 (potential) branch divergence @  PC=0x1b88 (_1.ptx:1717) @%p12 bra BB11_15;
GPGPU-Sim PTX:    immediate post dominator      @  PC=0x1e00 (_1.ptx:1881) mul.f64 %fd162, %fd318, 0dC000000000000000;
GPGPU-Sim PTX: 10 (potential) branch divergence @  PC=0x1b98 (_1.ptx:1721) @%p13 bra BB11_14;
GPGPU-Sim PTX:    immediate post dominator      @  PC=0x1e00 (_1.ptx:1881) mul.f64 %fd162, %fd318, 0dC000000000000000;
GPGPU-Sim PTX: 11 (potential) branch divergence @  PC=0x1ba8 (_1.ptx:1725) @%p14 bra BB11_22;
GPGPU-Sim PTX:    immediate post dominator      @  PC=0x1e00 (_1.ptx:1881) mul.f64 %fd162, %fd318, 0dC000000000000000;
GPGPU-Sim PTX: 12 (potential) branch divergence @  PC=0x1bc0 (_1.ptx:1730) bra.uni BB11_22;
GPGPU-Sim PTX:    immediate post dominator      @  PC=0x1e00 (_1.ptx:1881) mul.f64 %fd162, %fd318, 0dC000000000000000;
GPGPU-Sim PTX: 13 (potential) branch divergence @  PC=0x1bd0 (_1.ptx:1735) bra.uni BB11_22;
GPGPU-Sim PTX:    immediate post dominator      @  PC=0x1e00 (_1.ptx:1881) mul.f64 %fd162, %fd318, 0dC000000000000000;
GPGPU-Sim PTX: 14 (potential) branch divergence @  PC=0x1be0 (_1.ptx:1740) bra.uni BB11_22;
GPGPU-Sim PTX:    immediate post dominator      @  PC=0x1e00 (_1.ptx:1881) mul.f64 %fd162, %fd318, 0dC000000000000000;
GPGPU-Sim PTX: 15 (potential) branch divergence @  PC=0x1bf0 (_1.ptx:1745) @%p15 bra BB11_18;
GPGPU-Sim PTX:    immediate post dominator      @  PC=0x1c28 (_1.ptx:1767) shr.s32 %r88, %r232, 20;
GPGPU-Sim PTX: 16 (potential) branch divergence @  PC=0x1c00 (_1.ptx:1748) bra.uni BB11_19;
GPGPU-Sim PTX:    immediate post dominator      @  PC=0x1c28 (_1.ptx:1767) shr.s32 %r88, %r232, 20;
GPGPU-Sim PTX: 17 (potential) branch divergence @  PC=0x1c58 (_1.ptx:1776) @%p16 bra BB11_20;
GPGPU-Sim PTX:    immediate post dominator      @  PC=0x1c90 (_1.ptx:1798) add.f64 %fd120, %fd317, 0d3FF0000000000000;
GPGPU-Sim PTX: 18 (potential) branch divergence @  PC=0x1c60 (_1.ptx:1777) bra.uni BB11_21;
GPGPU-Sim PTX:    immediate post dominator      @  PC=0x1c90 (_1.ptx:1798) add.f64 %fd120, %fd317, 0d3FF0000000000000;
GPGPU-Sim PTX: 19 (potential) branch divergence @  PC=0x1f40 (_1.ptx:1942) @%p17 bra BB11_29;
GPGPU-Sim PTX:    immediate post dominator      @  PC=0x2138 (_1.ptx:2067) mov.b64 {%temp, %r237}, %fd323;
GPGPU-Sim PTX: 20 (potential) branch divergence @  PC=0x1fa8 (_1.ptx:1965) @%p18 bra BB11_24;
GPGPU-Sim PTX:    immediate post dominator      @  PC=0x1ff0 (_1.ptx:1994) add.s32 %r25, %r236, 1;
GPGPU-Sim PTX: 21 (potential) branch divergence @  PC=0x1fb0 (_1.ptx:1966) bra.uni BB11_25;
GPGPU-Sim PTX:    immediate post dominator      @  PC=0x1ff0 (_1.ptx:1994) add.s32 %r25, %r236, 1;
GPGPU-Sim PTX: 22 (potential) branch divergence @  PC=0x2010 (_1.ptx:2001) @%p19 bra BB11_27;
GPGPU-Sim PTX:    immediate post dominator      @  PC=0x2100 (_1.ptx:2051) and.b32 %r119, %r25, 2;
GPGPU-Sim PTX: 23 (potential) branch divergence @  PC=0x2090 (_1.ptx:2025) bra.uni BB11_28;
GPGPU-Sim PTX:    immediate post dominator      @  PC=0x2100 (_1.ptx:2051) and.b32 %r119, %r25, 2;
GPGPU-Sim PTX: 24 (potential) branch divergence @  PC=0x2120 (_1.ptx:2056) bra.uni BB11_30;
GPGPU-Sim PTX:    immediate post dominator      @  PC=0x2138 (_1.ptx:2067) mov.b64 {%temp, %r237}, %fd323;
GPGPU-Sim PTX: 25 (potential) branch divergence @  PC=0x2160 (_1.ptx:2079) @%p23 bra BB11_37;
GPGPU-Sim PTX:    immediate post dominator      @  PC=0x23f0 (_1.ptx:2249) mul.f64 %fd251, %fd323, 0dC000000000000000;
GPGPU-Sim PTX: 26 (potential) branch divergence @  PC=0x2178 (_1.ptx:2085) @%p24 bra BB11_36;
GPGPU-Sim PTX:    immediate post dominator      @  PC=0x23f0 (_1.ptx:2249) mul.f64 %fd251, %fd323, 0dC000000000000000;
GPGPU-Sim PTX: 27 (potential) branch divergence @  PC=0x2188 (_1.ptx:2089) @%p25 bra BB11_35;
GPGPU-Sim PTX:    immediate post dominator      @  PC=0x23f0 (_1.ptx:2249) mul.f64 %fd251, %fd323, 0dC000000000000000;
GPGPU-Sim PTX: 28 (potential) branch divergence @  PC=0x2198 (_1.ptx:2093) @%p26 bra BB11_43;
GPGPU-Sim PTX:    immediate post dominator      @  PC=0x23f0 (_1.ptx:2249) mul.f64 %fd251, %fd323, 0dC000000000000000;
GPGPU-Sim PTX: 29 (potential) branch divergence @  PC=0x21b0 (_1.ptx:2098) bra.uni BB11_43;
GPGPU-Sim PTX:    immediate post dominator      @  PC=0x23f0 (_1.ptx:2249) mul.f64 %fd251, %fd323, 0dC000000000000000;
GPGPU-Sim PTX: 30 (potential) branch divergence @  PC=0x21c0 (_1.ptx:2103) bra.uni BB11_43;
GPGPU-Sim PTX:    immediate post dominator      @  PC=0x23f0 (_1.ptx:2249) mul.f64 %fd251, %fd323, 0dC000000000000000;
GPGPU-Sim PTX: 31 (potential) branch divergence @  PC=0x21d0 (_1.ptx:2108) bra.uni BB11_43;
GPGPU-Sim PTX:    immediate post dominator      @  PC=0x23f0 (_1.ptx:2249) mul.f64 %fd251, %fd323, 0dC000000000000000;
GPGPU-Sim PTX: 32 (potential) branch divergence @  PC=0x21e0 (_1.ptx:2113) @%p27 bra BB11_39;
GPGPU-Sim PTX:    immediate post dominator      @  PC=0x2218 (_1.ptx:2135) shr.s32 %r122, %r237, 20;
GPGPU-Sim PTX: 33 (potential) branch divergence @  PC=0x21f0 (_1.ptx:2116) bra.uni BB11_40;
GPGPU-Sim PTX:    immediate post dominator      @  PC=0x2218 (_1.ptx:2135) shr.s32 %r122, %r237, 20;
GPGPU-Sim PTX: 34 (potential) branch divergence @  PC=0x2248 (_1.ptx:2144) @%p28 bra BB11_41;
GPGPU-Sim PTX:    immediate post dominator      @  PC=0x2280 (_1.ptx:2166) add.f64 %fd209, %fd322, 0d3FF0000000000000;
GPGPU-Sim PTX: 35 (potential) branch divergence @  PC=0x2250 (_1.ptx:2145) bra.uni BB11_42;
GPGPU-Sim PTX:    immediate post dominator      @  PC=0x2280 (_1.ptx:2166) add.f64 %fd209, %fd322, 0d3FF0000000000000;
GPGPU-Sim PTX: 36 (potential) branch divergence @  PC=0x2438 (_1.ptx:2265) @%p29 bra BB11_64;
GPGPU-Sim PTX:    immediate post dominator      @  PC=0x2a60 (_1.ptx:2584) mov.u32 %r230, %tid.x;
GPGPU-Sim PTX: 37 (potential) branch divergence @  PC=0x2458 (_1.ptx:2271) @%p30 bra BB11_48;
GPGPU-Sim PTX:    immediate post dominator      @  PC=0x25d8 (_1.ptx:2339) @%p1 bra BB11_50;
GPGPU-Sim PTX: 38 (potential) branch divergence @  PC=0x25d0 (_1.ptx:2335) @%p32 bra BB11_47;
GPGPU-Sim PTX:    immediate post dominator      @  PC=0x25d8 (_1.ptx:2339) @%p1 bra BB11_50;
GPGPU-Sim PTX: 39 (potential) branch divergence @  PC=0x25d8 (_1.ptx:2339) @%p1 bra BB11_50;
GPGPU-Sim PTX:    immediate post dominator      @  PC=0x27d0 (_1.ptx:2446) ld.param.u64 %rl92, [_Z17likelihood_kernelPdS_S_S_S_PiS0_S_PhS_S_iiiiiiS0_S__param_7];
GPGPU-Sim PTX: 40 (potential) branch divergence @  PC=0x25e8 (_1.ptx:2342) bra.uni BB11_58;
GPGPU-Sim PTX:    immediate post dominator      @  PC=0x27d0 (_1.ptx:2446) ld.param.u64 %rl92, [_Z17likelihood_kernelPdS_S_S_S_PiS0_S_PhS_S_iiiiiiS0_S__param_7];
GPGPU-Sim PTX: 41 (potential) branch divergence @  PC=0x26c0 (_1.ptx:2382) @%p3 bra BB11_54;
GPGPU-Sim PTX:    immediate post dominator      @  PC=0x2710 (_1.ptx:2402) add.s32 %r173, %r43, -228;
GPGPU-Sim PTX: 42 (potential) branch divergence @  PC=0x2708 (_1.ptx:2399) @%p34 bra BB11_53;
GPGPU-Sim PTX:    immediate post dominator      @  PC=0x2710 (_1.ptx:2402) add.s32 %r173, %r43, -228;
GPGPU-Sim PTX: 43 (potential) branch divergence @  PC=0x2730 (_1.ptx:2409) @%p3 bra BB11_57;
GPGPU-Sim PTX:    immediate post dominator      @  PC=0x2790 (_1.ptx:2432) sub.f64 %fd270, %fd325, %fd327;
GPGPU-Sim PTX: 44 (potential) branch divergence @  PC=0x2788 (_1.ptx:2428) @%p36 bra BB11_56;
GPGPU-Sim PTX:    immediate post dominator      @  PC=0x2790 (_1.ptx:2432) sub.f64 %fd270, %fd325, %fd327;
GPGPU-Sim PTX: 45 (potential) branch divergence @  PC=0x27c8 (_1.ptx:2443) @%p37 bra BB11_51;
GPGPU-Sim PTX:    immediate post dominator      @  PC=0x27d0 (_1.ptx:2446) ld.param.u64 %rl92, [_Z17likelihood_kernelPdS_S_S_S_PiS0_S_PhS_S_iiiiiiS0_S__param_7];
GPGPU-Sim PTX: 46 (potential) branch divergence @  PC=0x2850 (_1.ptx:2474) @%p40 bra BB11_60;
GPGPU-Sim PTX:    immediate post dominator      @  PC=0x2a30 (_1.ptx:2573) ld.param.u64 %rl95, [_Z17likelihood_kernelPdS_S_S_S_PiS0_S_PhS_S_iiiiiiS0_S__param_10];
GPGPU-Sim PTX: 47 (potential) branch divergence @  PC=0x2898 (_1.ptx:2488) bra.uni BB11_63;
GPGPU-Sim PTX:    immediate post dominator      @  PC=0x2a30 (_1.ptx:2573) ld.param.u64 %rl95, [_Z17likelihood_kernelPdS_S_S_S_PiS0_S_PhS_S_iiiiiiS0_S__param_10];
GPGPU-Sim PTX: 48 (potential) branch divergence @  PC=0x29a8 (_1.ptx:2543) @%p43 bra BB11_62;
GPGPU-Sim PTX:    immediate post dominator      @  PC=0x2a30 (_1.ptx:2573) ld.param.u64 %rl95, [_Z17likelihood_kernelPdS_S_S_S_PiS0_S_PhS_S_iiiiiiS0_S__param_10];
GPGPU-Sim PTX: 49 (potential) branch divergence @  PC=0x2a10 (_1.ptx:2563) bra.uni BB11_63;
GPGPU-Sim PTX:    immediate post dominator      @  PC=0x2a30 (_1.ptx:2573) ld.param.u64 %rl95, [_Z17likelihood_kernelPdS_S_S_S_PiS0_S_PhS_S_iiiiiiS0_S__param_10];
GPGPU-Sim PTX: 50 (potential) branch divergence @  PC=0x2aa8 (_1.ptx:2596) @%p45 bra BB11_66;
GPGPU-Sim PTX:    immediate post dominator      @  PC=0x2ae0 (_1.ptx:2608) bar.sync 0;
GPGPU-Sim PTX: 51 (potential) branch divergence @  PC=0x2b00 (_1.ptx:2614) @%p46 bra BB11_70;
GPGPU-Sim PTX:    immediate post dominator      @  PC=0x2b70 (_1.ptx:2641) mov.u32 %r229, %tid.x;
GPGPU-Sim PTX: 52 (potential) branch divergence @  PC=0x2b10 (_1.ptx:2619) @%p47 bra BB11_69;
GPGPU-Sim PTX:    immediate post dominator      @  PC=0x2b50 (_1.ptx:2633) bar.sync 0;
GPGPU-Sim PTX: 53 (potential) branch divergence @  PC=0x2b68 (_1.ptx:2637) @%p48 bra BB11_67;
GPGPU-Sim PTX:    immediate post dominator      @  PC=0x2b70 (_1.ptx:2641) mov.u32 %r229, %tid.x;
GPGPU-Sim PTX: 54 (potential) branch divergence @  PC=0x2b80 (_1.ptx:2644) @%p49 bra BB11_72;
GPGPU-Sim PTX:    immediate post dominator      @  PC=0x2bc0 (_1.ptx:2658) bar.sync 0;
GPGPU-Sim PTX: ... end of reconvergence points for _Z17likelihood_kernelPdS_S_S_S_PiS0_S_PhS_S_iiiiiiS0_S_
GPGPU-Sim PTX: ... done pre-decoding instructions for '_Z17likelihood_kernelPdS_S_S_S_PiS0_S_PhS_S_iiiiiiS0_S_'.
GPGPU-Sim PTX: finished parsing EMBEDDED .ptx file _1.ptx
Adding _cuobjdump_3.ptx with cubin handle 1
GPGPU-Sim PTX: extracting embedded .ptx to temporary file "_ptx_LfSJTA"
Running: cat _ptx_LfSJTA | sed 's/.version 1.5/.version 1.4/' | sed 's/, texmode_independent//' | sed 's/\(\.extern \.const\[1\] .b8 \w\+\)\[\]/\1\[1\]/' | sed 's/const\[.\]/const\[0\]/g' > _ptx2_4CJFWs
GPGPU-Sim PTX: generating ptxinfo using "$CUDA_INSTALL_PATH/bin/ptxas --gpu-name=sm_20 -v _ptx2_4CJFWs --output-file  /dev/null 2> _ptx_LfSJTAinfo"
GPGPU-Sim PTX: Kernel '_Z10sum_kernelPdi' : regs=18, lmem=0, smem=0, cmem=204
GPGPU-Sim PTX: Kernel '_Z17find_index_kernelPdS_S_S_S_S_S_i' : regs=13, lmem=0, smem=0, cmem=236
GPGPU-Sim PTX: Kernel '_Z17likelihood_kernelPdS_S_S_S_PiS0_S_PhS_S_iiiiiiS0_S_' : regs=38, lmem=0, smem=4096, cmem=392
GPGPU-Sim PTX: Kernel '_Z24normalize_weights_kernelPdiS_S_S_Pi' : regs=25, lmem=0, smem=16, cmem=264
GPGPU-Sim PTX: removing ptxinfo using "rm -f _ptx_LfSJTA _ptx2_4CJFWs _ptx_LfSJTAinfo"
GPGPU-Sim PTX: loading globals with explicit initializers... 
GPGPU-Sim PTX: finished loading globals (0 bytes total).
GPGPU-Sim PTX: loading constants with explicit initializers...  done.
GPGPU-Sim PTX: __cudaRegisterFunction _Z10sum_kernelPdi : hostFun 0x0x401180, fat_cubin_handle = 1
GPGPU-Sim PTX: __cudaRegisterFunction _Z24normalize_weights_kernelPdiS_S_S_Pi : hostFun 0x0x402470, fat_cubin_handle = 1
GPGPU-Sim PTX: __cudaRegisterFunction _Z17find_index_kernelPdS_S_S_S_S_S_i : hostFun 0x0x402380, fat_cubin_handle = 1
VIDEO SEQUENCE TOOK 0.038752
TIME TO SEND TO GPU: 0.034372

GPGPU-Sim PTX: cudaLaunch for 0x0x402740 (mode=performance simulation) on stream 0
GPGPU-Sim PTX: pushing kernel '_Z17likelihood_kernelPdS_S_S_S_PiS0_S_PhS_S_iiiiiiS0_S_' to stream 0, gridDim= (2,1,1) blockDim = (512,1,1) 
kernel '_Z17likelihood_kernelPdS_S_S_S_PiS0_S_PhS_S_iiiiiiS0_S_' transfer to GPU hardware scheduler
GPGPU-Sim uArch: Shader 1 bind to kernel 1 '_Z17likelihood_kernelPdS_S_S_S_PiS0_S_PhS_S_iiiiiiS0_S_'
GPGPU-Sim uArch: CTA/core = 1, limited by: regs
GPGPU-Sim uArch: core:  1, cta: 0 initialized @(1,0)
GPGPU-Sim uArch: Shader 2 bind to kernel 1 '_Z17likelihood_kernelPdS_S_S_S_PiS0_S_PhS_S_iiiiiiS0_S_'
GPGPU-Sim uArch: core:  2, cta: 0 initialized @(1,0)
GPGPU-Sim uArch: cycles simulated: 500  inst.: 1024 (ipc= 2.0) sim_rate=1024 (inst/sec) elapsed = 0:0:00:01 / Wed Jan 30 15:36:17 2019
GPGPU-Sim uArch: cycles simulated: 1000  inst.: 14272 (ipc=14.3) sim_rate=7136 (inst/sec) elapsed = 0:0:00:02 / Wed Jan 30 15:36:18 2019
GPGPU-Sim uArch: cycles simulated: 4000  inst.: 46904 (ipc=11.7) sim_rate=15634 (inst/sec) elapsed = 0:0:00:03 / Wed Jan 30 15:36:19 2019
GPGPU-Sim uArch: cycles simulated: 6500  inst.: 81467 (ipc=12.5) sim_rate=20366 (inst/sec) elapsed = 0:0:00:04 / Wed Jan 30 15:36:20 2019
GPGPU-Sim PTX: 100000 instructions simulated : ctaid=(0,0,0) tid=(479,0,0)
GPGPU-Sim uArch: cycles simulated: 9000  inst.: 138528 (ipc=15.4) sim_rate=27705 (inst/sec) elapsed = 0:0:00:05 / Wed Jan 30 15:36:21 2019
GPGPU-Sim uArch: cycles simulated: 12000  inst.: 188166 (ipc=15.7) sim_rate=31361 (inst/sec) elapsed = 0:0:00:06 / Wed Jan 30 15:36:22 2019
GPGPU-Sim PTX: 200000 instructions simulated : ctaid=(0,0,0) tid=(233,0,0)
GPGPU-Sim uArch: cycles simulated: 14500  inst.: 245470 (ipc=16.9) sim_rate=35067 (inst/sec) elapsed = 0:0:00:07 / Wed Jan 30 15:36:23 2019
GPGPU-Sim uArch: cycles simulated: 17000  inst.: 277366 (ipc=16.3) sim_rate=34670 (inst/sec) elapsed = 0:0:00:08 / Wed Jan 30 15:36:24 2019
GPGPU-Sim PTX: 300000 instructions simulated : ctaid=(0,0,0) tid=(450,0,0)
GPGPU-Sim uArch: cycles simulated: 19500  inst.: 321494 (ipc=16.5) sim_rate=35721 (inst/sec) elapsed = 0:0:00:09 / Wed Jan 30 15:36:25 2019
GPGPU-Sim uArch: cycles simulated: 21500  inst.: 359102 (ipc=16.7) sim_rate=35910 (inst/sec) elapsed = 0:0:00:10 / Wed Jan 30 15:36:26 2019
GPGPU-Sim PTX: 400000 instructions simulated : ctaid=(0,0,0) tid=(290,0,0)
GPGPU-Sim uArch: cycles simulated: 23500  inst.: 398062 (ipc=16.9) sim_rate=36187 (inst/sec) elapsed = 0:0:00:11 / Wed Jan 30 15:36:27 2019
GPGPU-Sim uArch: cycles simulated: 26000  inst.: 444910 (ipc=17.1) sim_rate=37075 (inst/sec) elapsed = 0:0:00:12 / Wed Jan 30 15:36:28 2019
GPGPU-Sim uArch: cycles simulated: 28500  inst.: 488486 (ipc=17.1) sim_rate=37575 (inst/sec) elapsed = 0:0:00:13 / Wed Jan 30 15:36:29 2019
GPGPU-Sim PTX: 500000 instructions simulated : ctaid=(1,0,0) tid=(450,0,0)
GPGPU-Sim uArch: cycles simulated: 30500  inst.: 527214 (ipc=17.3) sim_rate=37658 (inst/sec) elapsed = 0:0:00:14 / Wed Jan 30 15:36:30 2019
GPGPU-Sim uArch: cycles simulated: 32500  inst.: 561846 (ipc=17.3) sim_rate=37456 (inst/sec) elapsed = 0:0:00:15 / Wed Jan 30 15:36:31 2019
GPGPU-Sim PTX: 600000 instructions simulated : ctaid=(1,0,0) tid=(250,0,0)
GPGPU-Sim uArch: cycles simulated: 34500  inst.: 598446 (ipc=17.3) sim_rate=37402 (inst/sec) elapsed = 0:0:00:16 / Wed Jan 30 15:36:32 2019
GPGPU-Sim uArch: cycles simulated: 37000  inst.: 645478 (ipc=17.4) sim_rate=37969 (inst/sec) elapsed = 0:0:00:17 / Wed Jan 30 15:36:33 2019
GPGPU-Sim uArch: cycles simulated: 39500  inst.: 689158 (ipc=17.4) sim_rate=38286 (inst/sec) elapsed = 0:0:00:18 / Wed Jan 30 15:36:34 2019
GPGPU-Sim PTX: 700000 instructions simulated : ctaid=(0,0,0) tid=(138,0,0)
GPGPU-Sim uArch: cycles simulated: 41500  inst.: 727662 (ipc=17.5) sim_rate=38298 (inst/sec) elapsed = 0:0:00:19 / Wed Jan 30 15:36:35 2019
GPGPU-Sim uArch: cycles simulated: 44000  inst.: 773126 (ipc=17.6) sim_rate=38656 (inst/sec) elapsed = 0:0:00:20 / Wed Jan 30 15:36:36 2019
GPGPU-Sim PTX: 800000 instructions simulated : ctaid=(1,0,0) tid=(226,0,0)
GPGPU-Sim uArch: cycles simulated: 46500  inst.: 817294 (ipc=17.6) sim_rate=38918 (inst/sec) elapsed = 0:0:00:21 / Wed Jan 30 15:36:37 2019
GPGPU-Sim uArch: cycles simulated: 48500  inst.: 854358 (ipc=17.6) sim_rate=38834 (inst/sec) elapsed = 0:0:00:22 / Wed Jan 30 15:36:38 2019
GPGPU-Sim PTX: 900000 instructions simulated : ctaid=(1,0,0) tid=(274,0,0)
GPGPU-Sim uArch: cycles simulated: 50500  inst.: 889374 (ipc=17.6) sim_rate=38668 (inst/sec) elapsed = 0:0:00:23 / Wed Jan 30 15:36:39 2019
GPGPU-Sim uArch: cycles simulated: 53000  inst.: 934150 (ipc=17.6) sim_rate=38922 (inst/sec) elapsed = 0:0:00:24 / Wed Jan 30 15:36:40 2019
GPGPU-Sim uArch: cycles simulated: 55000  inst.: 972046 (ipc=17.7) sim_rate=38881 (inst/sec) elapsed = 0:0:00:25 / Wed Jan 30 15:36:41 2019
GPGPU-Sim PTX: 1000000 instructions simulated : ctaid=(0,0,0) tid=(170,0,0)
GPGPU-Sim uArch: cycles simulated: 57500  inst.: 1018382 (ipc=17.7) sim_rate=39168 (inst/sec) elapsed = 0:0:00:26 / Wed Jan 30 15:36:42 2019
GPGPU-Sim uArch: cycles simulated: 60000  inst.: 1066102 (ipc=17.8) sim_rate=39485 (inst/sec) elapsed = 0:0:00:27 / Wed Jan 30 15:36:43 2019
GPGPU-Sim PTX: 1100000 instructions simulated : ctaid=(0,0,0) tid=(426,0,0)
GPGPU-Sim uArch: cycles simulated: 62000  inst.: 1102590 (ipc=17.8) sim_rate=39378 (inst/sec) elapsed = 0:0:00:28 / Wed Jan 30 15:36:44 2019
GPGPU-Sim uArch: cycles simulated: 64500  inst.: 1150574 (ipc=17.8) sim_rate=39674 (inst/sec) elapsed = 0:0:00:29 / Wed Jan 30 15:36:45 2019
GPGPU-Sim uArch: cycles simulated: 66500  inst.: 1187510 (ipc=17.9) sim_rate=39583 (inst/sec) elapsed = 0:0:00:30 / Wed Jan 30 15:36:46 2019
GPGPU-Sim PTX: 1200000 instructions simulated : ctaid=(1,0,0) tid=(242,0,0)
GPGPU-Sim uArch: cycles simulated: 69000  inst.: 1234910 (ipc=17.9) sim_rate=39835 (inst/sec) elapsed = 0:0:00:31 / Wed Jan 30 15:36:47 2019
GPGPU-Sim uArch: cycles simulated: 71500  inst.: 1283238 (ipc=17.9) sim_rate=40101 (inst/sec) elapsed = 0:0:00:32 / Wed Jan 30 15:36:48 2019
GPGPU-Sim PTX: 1300000 instructions simulated : ctaid=(0,0,0) tid=(178,0,0)
GPGPU-Sim uArch: cycles simulated: 73500  inst.: 1320158 (ipc=18.0) sim_rate=40004 (inst/sec) elapsed = 0:0:00:33 / Wed Jan 30 15:36:49 2019
GPGPU-Sim uArch: cycles simulated: 76000  inst.: 1367254 (ipc=18.0) sim_rate=40213 (inst/sec) elapsed = 0:0:00:34 / Wed Jan 30 15:36:50 2019
GPGPU-Sim PTX: 1400000 instructions simulated : ctaid=(1,0,0) tid=(26,0,0)
GPGPU-Sim uArch: cycles simulated: 78500  inst.: 1415990 (ipc=18.0) sim_rate=40456 (inst/sec) elapsed = 0:0:00:35 / Wed Jan 30 15:36:51 2019
GPGPU-Sim uArch: cycles simulated: 80500  inst.: 1451934 (ipc=18.0) sim_rate=40331 (inst/sec) elapsed = 0:0:00:36 / Wed Jan 30 15:36:52 2019
GPGPU-Sim PTX: 1500000 instructions simulated : ctaid=(0,0,0) tid=(34,0,0)
GPGPU-Sim uArch: cycles simulated: 83000  inst.: 1499606 (ipc=18.1) sim_rate=40529 (inst/sec) elapsed = 0:0:00:37 / Wed Jan 30 15:36:53 2019
GPGPU-Sim uArch: cycles simulated: 85500  inst.: 1545678 (ipc=18.1) sim_rate=40675 (inst/sec) elapsed = 0:0:00:38 / Wed Jan 30 15:36:54 2019
GPGPU-Sim PTX: 1600000 instructions simulated : ctaid=(1,0,0) tid=(42,0,0)
GPGPU-Sim uArch: cycles simulated: 88000  inst.: 1592062 (ipc=18.1) sim_rate=40822 (inst/sec) elapsed = 0:0:00:39 / Wed Jan 30 15:36:55 2019
GPGPU-Sim uArch: cycles simulated: 90000  inst.: 1630078 (ipc=18.1) sim_rate=40751 (inst/sec) elapsed = 0:0:00:40 / Wed Jan 30 15:36:56 2019
GPGPU-Sim uArch: cycles simulated: 92500  inst.: 1678118 (ipc=18.1) sim_rate=40929 (inst/sec) elapsed = 0:0:00:41 / Wed Jan 30 15:36:57 2019
GPGPU-Sim PTX: 1700000 instructions simulated : ctaid=(0,0,0) tid=(226,0,0)
GPGPU-Sim uArch: cycles simulated: 94500  inst.: 1714974 (ipc=18.1) sim_rate=40832 (inst/sec) elapsed = 0:0:00:42 / Wed Jan 30 15:36:58 2019
GPGPU-Sim uArch: cycles simulated: 97000  inst.: 1762910 (ipc=18.2) sim_rate=40997 (inst/sec) elapsed = 0:0:00:43 / Wed Jan 30 15:36:59 2019
GPGPU-Sim PTX: 1800000 instructions simulated : ctaid=(0,0,0) tid=(394,0,0)
GPGPU-Sim uArch: cycles simulated: 99000  inst.: 1800502 (ipc=18.2) sim_rate=40920 (inst/sec) elapsed = 0:0:00:44 / Wed Jan 30 15:37:00 2019
GPGPU-Sim uArch: cycles simulated: 101500  inst.: 1847966 (ipc=18.2) sim_rate=41065 (inst/sec) elapsed = 0:0:00:45 / Wed Jan 30 15:37:01 2019
GPGPU-Sim uArch: cycles simulated: 103500  inst.: 1884766 (ipc=18.2) sim_rate=40973 (inst/sec) elapsed = 0:0:00:46 / Wed Jan 30 15:37:02 2019
GPGPU-Sim PTX: 1900000 instructions simulated : ctaid=(0,0,0) tid=(234,0,0)
GPGPU-Sim uArch: cycles simulated: 106000  inst.: 1931534 (ipc=18.2) sim_rate=41096 (inst/sec) elapsed = 0:0:00:47 / Wed Jan 30 15:37:03 2019
GPGPU-Sim uArch: cycles simulated: 108500  inst.: 1977918 (ipc=18.2) sim_rate=41206 (inst/sec) elapsed = 0:0:00:48 / Wed Jan 30 15:37:04 2019
GPGPU-Sim PTX: 2000000 instructions simulated : ctaid=(1,0,0) tid=(242,0,0)
GPGPU-Sim uArch: cycles simulated: 110500  inst.: 2016670 (ipc=18.3) sim_rate=41156 (inst/sec) elapsed = 0:0:00:49 / Wed Jan 30 15:37:05 2019
GPGPU-Sim uArch: cycles simulated: 113000  inst.: 2063022 (ipc=18.3) sim_rate=41260 (inst/sec) elapsed = 0:0:00:50 / Wed Jan 30 15:37:06 2019
GPGPU-Sim PTX: 2100000 instructions simulated : ctaid=(1,0,0) tid=(450,0,0)
GPGPU-Sim uArch: cycles simulated: 115000  inst.: 2101950 (ipc=18.3) sim_rate=41214 (inst/sec) elapsed = 0:0:00:51 / Wed Jan 30 15:37:07 2019
GPGPU-Sim uArch: cycles simulated: 117500  inst.: 2147558 (ipc=18.3) sim_rate=41299 (inst/sec) elapsed = 0:0:00:52 / Wed Jan 30 15:37:08 2019
GPGPU-Sim uArch: cycles simulated: 119500  inst.: 2185182 (ipc=18.3) sim_rate=41229 (inst/sec) elapsed = 0:0:00:53 / Wed Jan 30 15:37:09 2019
GPGPU-Sim PTX: 2200000 instructions simulated : ctaid=(0,0,0) tid=(434,0,0)
GPGPU-Sim uArch: cycles simulated: 122000  inst.: 2232758 (ipc=18.3) sim_rate=41347 (inst/sec) elapsed = 0:0:00:54 / Wed Jan 30 15:37:10 2019
GPGPU-Sim uArch: cycles simulated: 124500  inst.: 2279838 (ipc=18.3) sim_rate=41451 (inst/sec) elapsed = 0:0:00:55 / Wed Jan 30 15:37:11 2019
GPGPU-Sim PTX: 2300000 instructions simulated : ctaid=(0,0,0) tid=(498,0,0)
GPGPU-Sim uArch: cycles simulated: 126500  inst.: 2317606 (ipc=18.3) sim_rate=41385 (inst/sec) elapsed = 0:0:00:56 / Wed Jan 30 15:37:12 2019
GPGPU-Sim uArch: cycles simulated: 129000  inst.: 2366510 (ipc=18.3) sim_rate=41517 (inst/sec) elapsed = 0:0:00:57 / Wed Jan 30 15:37:13 2019
GPGPU-Sim PTX: 2400000 instructions simulated : ctaid=(1,0,0) tid=(82,0,0)
GPGPU-Sim uArch: cycles simulated: 131000  inst.: 2403790 (ipc=18.3) sim_rate=41444 (inst/sec) elapsed = 0:0:00:58 / Wed Jan 30 15:37:14 2019
GPGPU-Sim uArch: cycles simulated: 133500  inst.: 2454966 (ipc=18.4) sim_rate=41609 (inst/sec) elapsed = 0:0:00:59 / Wed Jan 30 15:37:15 2019
GPGPU-Sim PTX: 2500000 instructions simulated : ctaid=(0,0,0) tid=(98,0,0)
GPGPU-Sim uArch: cycles simulated: 135500  inst.: 2499102 (ipc=18.4) sim_rate=41651 (inst/sec) elapsed = 0:0:01:00 / Wed Jan 30 15:37:16 2019
GPGPU-Sim uArch: cycles simulated: 138000  inst.: 2553302 (ipc=18.5) sim_rate=41857 (inst/sec) elapsed = 0:0:01:01 / Wed Jan 30 15:37:17 2019
GPGPU-Sim PTX: 2600000 instructions simulated : ctaid=(0,0,0) tid=(322,0,0)
GPGPU-Sim uArch: cycles simulated: 140500  inst.: 2606878 (ipc=18.6) sim_rate=42046 (inst/sec) elapsed = 0:0:01:02 / Wed Jan 30 15:37:18 2019
GPGPU-Sim uArch: cycles simulated: 142500  inst.: 2645206 (ipc=18.6) sim_rate=41987 (inst/sec) elapsed = 0:0:01:03 / Wed Jan 30 15:37:19 2019
GPGPU-Sim PTX: 2700000 instructions simulated : ctaid=(0,0,0) tid=(74,0,0)
GPGPU-Sim uArch: cycles simulated: 145000  inst.: 2700286 (ipc=18.6) sim_rate=42191 (inst/sec) elapsed = 0:0:01:04 / Wed Jan 30 15:37:20 2019
GPGPU-Sim uArch: cycles simulated: 147500  inst.: 2749894 (ipc=18.6) sim_rate=42306 (inst/sec) elapsed = 0:0:01:05 / Wed Jan 30 15:37:21 2019
GPGPU-Sim PTX: 2800000 instructions simulated : ctaid=(0,0,0) tid=(114,0,0)
GPGPU-Sim uArch: cycles simulated: 150000  inst.: 2796398 (ipc=18.6) sim_rate=42369 (inst/sec) elapsed = 0:0:01:06 / Wed Jan 30 15:37:22 2019
GPGPU-Sim uArch: cycles simulated: 152500  inst.: 2854822 (ipc=18.7) sim_rate=42609 (inst/sec) elapsed = 0:0:01:07 / Wed Jan 30 15:37:23 2019
GPGPU-Sim PTX: 2900000 instructions simulated : ctaid=(0,0,0) tid=(442,0,0)
GPGPU-Sim uArch: cycles simulated: 155000  inst.: 2902342 (ipc=18.7) sim_rate=42681 (inst/sec) elapsed = 0:0:01:08 / Wed Jan 30 15:37:24 2019
GPGPU-Sim PTX: 3000000 instructions simulated : ctaid=(1,0,0) tid=(74,0,0)
GPGPU-Sim uArch: cycles simulated: 157500  inst.: 2957430 (ipc=18.8) sim_rate=42861 (inst/sec) elapsed = 0:0:01:09 / Wed Jan 30 15:37:25 2019
GPGPU-Sim uArch: cycles simulated: 160000  inst.: 2989934 (ipc=18.7) sim_rate=42713 (inst/sec) elapsed = 0:0:01:10 / Wed Jan 30 15:37:26 2019
GPGPU-Sim uArch: cycles simulated: 162500  inst.: 3038150 (ipc=18.7) sim_rate=42790 (inst/sec) elapsed = 0:0:01:11 / Wed Jan 30 15:37:27 2019
GPGPU-Sim PTX: 3100000 instructions simulated : ctaid=(0,0,0) tid=(10,0,0)
GPGPU-Sim uArch: cycles simulated: 164500  inst.: 3076926 (ipc=18.7) sim_rate=42735 (inst/sec) elapsed = 0:0:01:12 / Wed Jan 30 15:37:28 2019
GPGPU-Sim uArch: cycles simulated: 167500  inst.: 3127766 (ipc=18.7) sim_rate=42846 (inst/sec) elapsed = 0:0:01:13 / Wed Jan 30 15:37:29 2019
GPGPU-Sim PTX: 3200000 instructions simulated : ctaid=(0,0,0) tid=(330,0,0)
GPGPU-Sim uArch: cycles simulated: 169500  inst.: 3171926 (ipc=18.7) sim_rate=42863 (inst/sec) elapsed = 0:0:01:14 / Wed Jan 30 15:37:30 2019
GPGPU-Sim uArch: cycles simulated: 172000  inst.: 3204902 (ipc=18.6) sim_rate=42732 (inst/sec) elapsed = 0:0:01:15 / Wed Jan 30 15:37:31 2019
GPGPU-Sim PTX: 3300000 instructions simulated : ctaid=(0,0,0) tid=(466,0,0)
GPGPU-Sim uArch: cycles simulated: 174500  inst.: 3255398 (ipc=18.7) sim_rate=42834 (inst/sec) elapsed = 0:0:01:16 / Wed Jan 30 15:37:32 2019
GPGPU-Sim uArch: cycles simulated: 176500  inst.: 3290814 (ipc=18.6) sim_rate=42737 (inst/sec) elapsed = 0:0:01:17 / Wed Jan 30 15:37:33 2019
GPGPU-Sim PTX: 3400000 instructions simulated : ctaid=(0,0,0) tid=(474,0,0)
GPGPU-Sim uArch: cycles simulated: 179000  inst.: 3333894 (ipc=18.6) sim_rate=42742 (inst/sec) elapsed = 0:0:01:18 / Wed Jan 30 15:37:34 2019
GPGPU-Sim uArch: cycles simulated: 181500  inst.: 3385542 (ipc=18.7) sim_rate=42854 (inst/sec) elapsed = 0:0:01:19 / Wed Jan 30 15:37:35 2019
GPGPU-Sim PTX: 3500000 instructions simulated : ctaid=(1,0,0) tid=(114,0,0)
GPGPU-Sim uArch: cycles simulated: 184000  inst.: 3419342 (ipc=18.6) sim_rate=42741 (inst/sec) elapsed = 0:0:01:20 / Wed Jan 30 15:37:36 2019
GPGPU-Sim uArch: cycles simulated: 186500  inst.: 3468478 (ipc=18.6) sim_rate=42820 (inst/sec) elapsed = 0:0:01:21 / Wed Jan 30 15:37:37 2019
GPGPU-Sim PTX: 3600000 instructions simulated : ctaid=(1,0,0) tid=(402,0,0)
GPGPU-Sim uArch: cycles simulated: 189000  inst.: 3519014 (ipc=18.6) sim_rate=42914 (inst/sec) elapsed = 0:0:01:22 / Wed Jan 30 15:37:38 2019
GPGPU-Sim uArch: cycles simulated: 191500  inst.: 3554966 (ipc=18.6) sim_rate=42830 (inst/sec) elapsed = 0:0:01:23 / Wed Jan 30 15:37:39 2019
GPGPU-Sim PTX: 3700000 instructions simulated : ctaid=(1,0,0) tid=(362,0,0)
GPGPU-Sim uArch: cycles simulated: 194000  inst.: 3604278 (ipc=18.6) sim_rate=42908 (inst/sec) elapsed = 0:0:01:24 / Wed Jan 30 15:37:40 2019
GPGPU-Sim uArch: cycles simulated: 196500  inst.: 3652686 (ipc=18.6) sim_rate=42972 (inst/sec) elapsed = 0:0:01:25 / Wed Jan 30 15:37:41 2019
GPGPU-Sim PTX: 3800000 instructions simulated : ctaid=(1,0,0) tid=(194,0,0)
GPGPU-Sim uArch: cycles simulated: 199000  inst.: 3690446 (ipc=18.5) sim_rate=42912 (inst/sec) elapsed = 0:0:01:26 / Wed Jan 30 15:37:42 2019
GPGPU-Sim uArch: cycles simulated: 201500  inst.: 3741438 (ipc=18.6) sim_rate=43005 (inst/sec) elapsed = 0:0:01:27 / Wed Jan 30 15:37:43 2019
GPGPU-Sim uArch: cycles simulated: 204000  inst.: 3778070 (ipc=18.5) sim_rate=42932 (inst/sec) elapsed = 0:0:01:28 / Wed Jan 30 15:37:44 2019
GPGPU-Sim PTX: 3900000 instructions simulated : ctaid=(1,0,0) tid=(330,0,0)
GPGPU-Sim uArch: cycles simulated: 206500  inst.: 3830094 (ipc=18.5) sim_rate=43034 (inst/sec) elapsed = 0:0:01:29 / Wed Jan 30 15:37:45 2019
GPGPU-Sim PTX: 4000000 instructions simulated : ctaid=(1,0,0) tid=(410,0,0)
GPGPU-Sim uArch: cycles simulated: 209000  inst.: 3881398 (ipc=18.6) sim_rate=43126 (inst/sec) elapsed = 0:0:01:30 / Wed Jan 30 15:37:46 2019
GPGPU-Sim uArch: cycles simulated: 211500  inst.: 3918470 (ipc=18.5) sim_rate=43060 (inst/sec) elapsed = 0:0:01:31 / Wed Jan 30 15:37:47 2019
GPGPU-Sim PTX: 4100000 instructions simulated : ctaid=(0,0,0) tid=(346,0,0)
GPGPU-Sim uArch: cycles simulated: 214000  inst.: 3970982 (ipc=18.6) sim_rate=43162 (inst/sec) elapsed = 0:0:01:32 / Wed Jan 30 15:37:48 2019
GPGPU-Sim uArch: cycles simulated: 216500  inst.: 4022902 (ipc=18.6) sim_rate=43257 (inst/sec) elapsed = 0:0:01:33 / Wed Jan 30 15:37:49 2019
GPGPU-Sim PTX: 4200000 instructions simulated : ctaid=(0,0,0) tid=(210,0,0)
GPGPU-Sim uArch: cycles simulated: 219000  inst.: 4063374 (ipc=18.6) sim_rate=43227 (inst/sec) elapsed = 0:0:01:34 / Wed Jan 30 15:37:50 2019
GPGPU-Sim uArch: cycles simulated: 221500  inst.: 4116590 (ipc=18.6) sim_rate=43332 (inst/sec) elapsed = 0:0:01:35 / Wed Jan 30 15:37:51 2019
GPGPU-Sim PTX: 4300000 instructions simulated : ctaid=(0,0,0) tid=(194,0,0)
GPGPU-Sim uArch: cycles simulated: 224000  inst.: 4151550 (ipc=18.5) sim_rate=43245 (inst/sec) elapsed = 0:0:01:36 / Wed Jan 30 15:37:52 2019
GPGPU-Sim uArch: cycles simulated: 226500  inst.: 4201718 (ipc=18.6) sim_rate=43316 (inst/sec) elapsed = 0:0:01:37 / Wed Jan 30 15:37:53 2019
GPGPU-Sim PTX: 4400000 instructions simulated : ctaid=(0,0,0) tid=(450,0,0)
GPGPU-Sim uArch: cycles simulated: 229000  inst.: 4249854 (ipc=18.6) sim_rate=43365 (inst/sec) elapsed = 0:0:01:38 / Wed Jan 30 15:37:54 2019
GPGPU-Sim uArch: cycles simulated: 231500  inst.: 4290294 (ipc=18.5) sim_rate=43336 (inst/sec) elapsed = 0:0:01:39 / Wed Jan 30 15:37:55 2019
GPGPU-Sim PTX: 4500000 instructions simulated : ctaid=(1,0,0) tid=(2,0,0)
GPGPU-Sim uArch: cycles simulated: 234000  inst.: 4342798 (ipc=18.6) sim_rate=43427 (inst/sec) elapsed = 0:0:01:40 / Wed Jan 30 15:37:56 2019
GPGPU-Sim uArch: cycles simulated: 236500  inst.: 4381030 (ipc=18.5) sim_rate=43376 (inst/sec) elapsed = 0:0:01:41 / Wed Jan 30 15:37:57 2019
GPGPU-Sim PTX: 4600000 instructions simulated : ctaid=(1,0,0) tid=(106,0,0)
GPGPU-Sim uArch: cycles simulated: 239000  inst.: 4432494 (ipc=18.5) sim_rate=43455 (inst/sec) elapsed = 0:0:01:42 / Wed Jan 30 15:37:58 2019
GPGPU-Sim uArch: cycles simulated: 241000  inst.: 4467470 (ipc=18.5) sim_rate=43373 (inst/sec) elapsed = 0:0:01:43 / Wed Jan 30 15:37:59 2019
GPGPU-Sim uArch: cycles simulated: 243500  inst.: 4515270 (ipc=18.5) sim_rate=43416 (inst/sec) elapsed = 0:0:01:44 / Wed Jan 30 15:38:00 2019
GPGPU-Sim PTX: 4700000 instructions simulated : ctaid=(0,0,0) tid=(474,0,0)
GPGPU-Sim uArch: cycles simulated: 246000  inst.: 4567118 (ipc=18.6) sim_rate=43496 (inst/sec) elapsed = 0:0:01:45 / Wed Jan 30 15:38:01 2019
GPGPU-Sim uArch: cycles simulated: 248500  inst.: 4606470 (ipc=18.5) sim_rate=43457 (inst/sec) elapsed = 0:0:01:46 / Wed Jan 30 15:38:02 2019
GPGPU-Sim PTX: 4800000 instructions simulated : ctaid=(0,0,0) tid=(338,0,0)
GPGPU-Sim uArch: cycles simulated: 251000  inst.: 4659870 (ipc=18.6) sim_rate=43550 (inst/sec) elapsed = 0:0:01:47 / Wed Jan 30 15:38:03 2019
GPGPU-Sim PTX: 4900000 instructions simulated : ctaid=(0,0,0) tid=(426,0,0)
GPGPU-Sim uArch: cycles simulated: 253500  inst.: 4704566 (ipc=18.6) sim_rate=43560 (inst/sec) elapsed = 0:0:01:48 / Wed Jan 30 15:38:04 2019
GPGPU-Sim uArch: cycles simulated: 256000  inst.: 4753182 (ipc=18.6) sim_rate=43607 (inst/sec) elapsed = 0:0:01:49 / Wed Jan 30 15:38:05 2019
GPGPU-Sim PTX: 5000000 instructions simulated : ctaid=(0,0,0) tid=(450,0,0)
GPGPU-Sim uArch: cycles simulated: 258500  inst.: 4803542 (ipc=18.6) sim_rate=43668 (inst/sec) elapsed = 0:0:01:50 / Wed Jan 30 15:38:06 2019
GPGPU-Sim uArch: cycles simulated: 261000  inst.: 4842830 (ipc=18.6) sim_rate=43629 (inst/sec) elapsed = 0:0:01:51 / Wed Jan 30 15:38:07 2019
GPGPU-Sim uArch: cycles simulated: 263000  inst.: 4884942 (ipc=18.6) sim_rate=43615 (inst/sec) elapsed = 0:0:01:52 / Wed Jan 30 15:38:08 2019
GPGPU-Sim PTX: 5100000 instructions simulated : ctaid=(0,0,0) tid=(146,0,0)
GPGPU-Sim uArch: cycles simulated: 265500  inst.: 4927622 (ipc=18.6) sim_rate=43607 (inst/sec) elapsed = 0:0:01:53 / Wed Jan 30 15:38:09 2019
GPGPU-Sim uArch: cycles simulated: 268000  inst.: 4970774 (ipc=18.5) sim_rate=43603 (inst/sec) elapsed = 0:0:01:54 / Wed Jan 30 15:38:10 2019
GPGPU-Sim PTX: 5200000 instructions simulated : ctaid=(0,0,0) tid=(330,0,0)
GPGPU-Sim uArch: cycles simulated: 271000  inst.: 5032534 (ipc=18.6) sim_rate=43761 (inst/sec) elapsed = 0:0:01:55 / Wed Jan 30 15:38:11 2019
GPGPU-Sim uArch: cycles simulated: 273000  inst.: 5067798 (ipc=18.6) sim_rate=43687 (inst/sec) elapsed = 0:0:01:56 / Wed Jan 30 15:38:12 2019
GPGPU-Sim PTX: 5300000 instructions simulated : ctaid=(1,0,0) tid=(290,0,0)
GPGPU-Sim uArch: cycles simulated: 276000  inst.: 5131142 (ipc=18.6) sim_rate=43855 (inst/sec) elapsed = 0:0:01:57 / Wed Jan 30 15:38:13 2019
GPGPU-Sim PTX: 5400000 instructions simulated : ctaid=(0,0,0) tid=(218,0,0)
[...]
traffic_breakdown_coretomem[CONST_ACC_R] = 208 {8:26,}
traffic_breakdown_coretomem[GLOBAL_ACC_R] = 9259712 {8:1157464,}
traffic_breakdown_coretomem[GLOBAL_ACC_W] = 26120304 {40:630063,72:99,136:6696,}
traffic_breakdown_coretomem[INST_ACC_R] = 6040 {8:755,}
traffic_breakdown_coretomem[LOCAL_ACC_W] = 76608 {40:18,136:558,}
traffic_breakdown_memtocore[CONST_ACC_R] = 1872 {72:26,}
traffic_breakdown_memtocore[GLOBAL_ACC_R] = 77899712 {40:820212,72:12110,136:325142,}
traffic_breakdown_memtocore[GLOBAL_ACC_W] = 5094864 {8:636858,}
traffic_breakdown_memtocore[INST_ACC_R] = 102680 {136:755,}
traffic_breakdown_memtocore[LOCAL_ACC_W] = 4608 {8:576,}
maxmrqlatency = 300 
maxdqlatency = 0 
maxmflatency = 1084 
averagemflatency = 238 
max_icnt2mem_latency = 606 
max_icnt2sh_latency = 6920978 
mrq_lat_table:3350 	76 	432 	221 	390 	556 	638 	321 	6 	0 	0 	0 	0 	0 	0 	0 	0 	0 	0 	0 	0 	0 	0 	0 	0 	0 	0 	0 	0 	0 	0 	0 	
dq_lat_table:0 	0 	0 	0 	0 	0 	0 	0 	0 	0 	0 	0 	0 	0 	0 	0 	0 	0 	0 	0 	0 	0 	0 	0 	0 	0 	0 	0 	0 	0 	0 	0 	
mf_lat_table:0 	0 	0 	0 	0 	0 	0 	1346426 	316352 	132100 	46 	0 	0 	0 	0 	0 	0 	0 	0 	0 	0 	0 	0 	0 	0 	0 	0 	0 	0 	0 	0 	0 	
icnt2mem_lat_table:0 	0 	0 	511523 	840734 	422188 	8009 	10610 	2584 	31 	0 	0 	0 	0 	0 	0 	0 	0 	0 	0 	0 	0 	0 	0 	
icnt2sh_lat_table:0 	0 	0 	216402 	211767 	214836 	191345 	308135 	15005 	0 	63 	126 	127 	921 	9042 	18287 	37100 	3777 	1203 	69693 	72077 	211622 	213396 	0 	
mf_lat_pw_table:0 	0 	0 	0 	0 	0 	0 	12172 	1169 	437 	0 	0 	0 	0 	0 	0 	0 	0 	0 	0 	0 	0 	0 	0 	0 	0 	0 	0 	0 	0 	0 	0 	
maximum concurrent accesses to same row:
dram[0]:        64        64        64        64        20        20        64        64        64         0         0         0         0         0         0         0 
dram[1]:        64        64        64        64        20        20        64        64         0         0         0         0         0         0         0         0 
dram[2]:        64        64        64        64        20        24        64        64         0        62         0         0         0         0         0         0 
dram[3]:        64        64        64        64        18        24        64        64        64         0         0         0         0         0         0         0 
dram[4]:        64        64        64        64        20        24        64        64         0        62         0         0         0         0         0         0 
dram[5]:        64        64        64        64        20        22        64        64        62         0         0         0         0         0         0         0 
maximum service time to same row:
dram[0]:      6516    272028     15507     15496     13355     13256    278511    277998    112523      2537      2729      2547         0         0     14995     15010 
dram[1]:      7254    298873     15501     15499     13226     13319    284690    289336     15530      2647      2711      2657         0         0     14992     15007 
dram[2]:    111442      7885     15490     15475     13328     13366    270710    276909     15478    280534      2461      2683         0         0     14989     15004 
dram[3]:    113133      6320     15488     15472     13241     13298    286012    293243    249751      2641      2467      2745         0         0     14986     15001 
dram[4]:    269807      9627     15528     15488     13339     13348    279453    282361     15491    242105      2549    315728         0         0     14004     15034 
dram[5]:    271326      6077     15485     15499     13324     13256    289411    291974    207732      2691      2611         0         0         0     15013     14998 
average row accesses per activate:
dram[0]: 23.400000 14.250000 40.000000 38.000000 42.000000 42.000000 38.333332 39.333332 32.500000 62.000000  2.000000  2.000000      -nan      -nan 40.000000 41.000000 
dram[1]: 23.200001 19.000000 40.000000 38.000000 42.000000 42.000000 38.666668 38.333332 64.000000 62.000000  2.000000  2.000000      -nan      -nan 40.000000 44.000000 
dram[2]: 23.200001 14.000000 40.000000 38.000000 42.000000 44.000000 38.666668 39.333332 64.000000 31.500000  2.000000  2.000000      -nan      -nan 40.000000 44.000000 
dram[3]: 23.200001 14.000000 40.000000 38.000000 41.000000 44.000000 37.666668 39.333332 32.500000 62.000000  2.000000  2.000000      -nan      -nan 40.000000 44.000000 
dram[4]: 27.500000 27.500000 38.000000 38.000000 42.000000 44.000000 39.333332 39.333332 64.000000 31.500000  2.000000  2.000000      -nan      -nan 42.000000 44.000000 
dram[5]: 27.750000 18.500000 38.000000 38.000000 42.000000 43.000000 39.333332 38.000000 31.500000 62.000000  2.000000      -nan      -nan      -nan 42.000000 44.000000 
average row locality = 5990/192 = 31.197916
number of total memory accesses made:
dram[0]:         0         0         0         0         0         0         0         0         0         0         0         0         0         0         0         0 
dram[1]:         0         0         0         0         0         0         0         0         0         0         0         0         0         0         0         0 
dram[2]:         0         0         0         0         0         0         0         0         0         0         0         0         0         0         0         0 
dram[3]:         0         0         0         0         0         0         0         0         0         0         0         0         0         0         0         0 
dram[4]:         0         0         0         0         0         0         0         0         0         0         0         0         0         0         0         0 
dram[5]:         0         0         0         0         0         0         0         0         0         0         0         0         0         0         0         0 
total accesses: 0
min_bank_accesses = 0!
min_chip_accesses = 0!
number of total read accesses:
dram[0]:        61        60        40        38        42        42        64        64        33        32         2         2         0         0        20        21 
dram[1]:        60        60        40        38        42        42        64        62        32        32         2         2         0         0        20        22 
dram[2]:        60        58        40        38        42        44        64        64        32        33         2         2         0         0        20        22 
dram[3]:        60        58        40        38        41        44        62        64        33        32         2         2         0         0        20        22 
dram[4]:        56        56        38        38        42        44        64        64        32        33         2         1         0         0        22        22 
dram[5]:        57        57        38        38        42        43        64        62        32        32         2         0         0         0        22        22 
total reads: 3103
min_bank_accesses = 0!
chip skew: 521/511 = 1.02
number of total write accesses:
dram[0]:        56        54        40        38        42        42        51        54        32        30         0         0         0         0        20        20 
dram[1]:        56        54        40        38        42        42        52        53        32        30         0         0         0         0        20        22 
dram[2]:        56        54        40        38        42        44        52        54        32        30         0         0         0         0        20        22 
dram[3]:        56        54        40        38        41        44        51        54        32        30         0         0         0         0        20        22 
dram[4]:        54        54        38        38        42        44        54        54        32        30         0         1         0         0        20        22 
dram[5]:        54        54        38        38        42        43        54        52        31        30         0         0         0         0        20        22 
total reads: 2887
min_bank_accesses = 0!
chip skew: 484/478 = 1.01
average mf latency per bank:
dram[0]:      45358     41475     66958     62658     76909     70272     87550    103928    162042     71530      5417      5545    none      none       83132     90031
dram[1]:      40676     41834     59810     63396     70871     71472     84846     97910     73710     72142      5583      5537    none      none       74290     74216
dram[2]:      40165     42249     59177     63007     69464     69547     83020     81787     72870     72033      5556      5503    none      none       72958     73388
dram[3]:      40930     42259     60145     63237     71062     70631     89686     83207     84298     72082      5600      5467    none      none       74058     74116
dram[4]:      44621     43869     64836     64155     74063     70905    105241     81583     76786     88155      5522      4444    none      none      171511     75598
dram[5]:      46033     42564     67159     62567     77762     70507    109914     84316     92516     71658      5498    none      none      none      175554     74070
maximum mf latency per bank:
dram[0]:       1071       926      1084       887      1009       907      1052       891      1081       847       288       293         0         0      1062       874
dram[1]:        936       955       916       853       955       886       939       984       917       965       304       314         0         0       931       865
dram[2]:        939       913       888       909       923       954       998       919       968       916       293       280         0         0       978       902
dram[3]:        932       833       932       822       918       833       908       830       939       831       295       294         0         0       909       836
dram[4]:        896       982       862       933       907       928       926       911       891       934       304       254         0         0       844       946
dram[5]:        952       951       900       905       973       951       925      1004       961       904       297         0         0         0       936       990
Memory Partition 0: 
Cache L2_bank_000:
MSHR contents

Cache L2_bank_001:
MSHR contents

In Dram Latency Queue (total = 0): 
DRAM[0]: 16 bks, busW=4 BL=8 CL=12, tRRD=2 tCCD=6, tRCD=12 tRAS=28 tRP=12 tRC=40
n_cmd=6920979 n_nop=6919291 n_act=35 n_pre=21 n_req=1000 n_rd=1042 n_write=590 bw_util=0.0004716
n_activity=10833 dram_eff=0.3013
bk0: 122a 6919159i bk1: 120a 6919378i bk2: 80a 6919636i bk3: 76a 6919486i bk4: 84a 6919444i bk5: 84a 6919341i bk6: 128a 6918991i bk7: 128a 6918989i bk8: 66a 6919733i bk9: 64a 6919711i bk10: 4a 6920955i bk11: 4a 6920956i bk12: 0a 6920980i bk13: 0a 6920984i bk14: 40a 6920349i bk15: 42a 6920284i 
dram_util_bins: 0 0 0 0 0 0 0 0 0 0
dram_eff_bins: 0 0 0 0 0 0 0 0 0 0
mrqq: max=16 avg=0.00373863
Memory Partition 1: 
Cache L2_bank_002:
MSHR contents

Cache L2_bank_003:
MSHR contents

In Dram Latency Queue (total = 0): 
DRAM[1]: 16 bks, busW=4 BL=8 CL=12, tRRD=2 tCCD=6, tRCD=12 tRAS=28 tRP=12 tRC=40
n_cmd=6920979 n_nop=6919310 n_act=31 n_pre=17 n_req=999 n_rd=1036 n_write=585 bw_util=0.0004684
n_activity=10543 dram_eff=0.3075
bk0: 120a 6919182i bk1: 120a 6919070i bk2: 80a 6919421i bk3: 76a 6919545i bk4: 84a 6919573i bk5: 84a 6919343i bk6: 128a 6919079i bk7: 124a 6918918i bk8: 64a 6919749i bk9: 64a 6919828i bk10: 4a 6920940i bk11: 4a 6920927i bk12: 0a 6920977i bk13: 0a 6920982i bk14: 40a 6920390i bk15: 44a 6920303i 
dram_util_bins: 0 0 0 0 0 0 0 0 0 0
dram_eff_bins: 0 0 0 0 0 0 0 0 0 0
mrqq: max=16 avg=0.00389338
Memory Partition 2: 
Cache L2_bank_004:
MSHR contents

Cache L2_bank_005:
MSHR contents

In Dram Latency Queue (total = 0): 
DRAM[2]: 16 bks, busW=4 BL=8 CL=12, tRRD=2 tCCD=6, tRCD=12 tRAS=28 tRP=12 tRC=40
n_cmd=6920979 n_nop=6919285 n_act=34 n_pre=20 n_req=1005 n_rd=1042 n_write=598 bw_util=0.0004739
n_activity=10843 dram_eff=0.3025
bk0: 120a 6919270i bk1: 116a 6919126i bk2: 80a 6919582i bk3: 76a 6919531i bk4: 84a 6919441i bk5: 88a 6919347i bk6: 128a 6918957i bk7: 128a 6918966i bk8: 64a 6919751i bk9: 66a 6919797i bk10: 4a 6920949i bk11: 4a 6920955i bk12: 0a 6920979i bk13: 0a 6920984i bk14: 40a 6920439i bk15: 44a 6920263i 
dram_util_bins: 0 0 0 0 0 0 0 0 0 0
dram_eff_bins: 0 0 0 0 0 0 0 0 0 0
mrqq: max=16 avg=0.00321645
Memory Partition 3: 
Cache L2_bank_006:
MSHR contents

Cache L2_bank_007:
MSHR contents

In Dram Latency Queue (total = 0): 
DRAM[3]: 16 bks, busW=4 BL=8 CL=12, tRRD=2 tCCD=6, tRCD=12 tRAS=28 tRP=12 tRC=40
n_cmd=6920979 n_nop=6919303 n_act=34 n_pre=20 n_req=1000 n_rd=1036 n_write=586 bw_util=0.0004687
n_activity=10740 dram_eff=0.302
bk0: 120a 6919115i bk1: 116a 6919143i bk2: 80a 6919518i bk3: 76a 6919602i bk4: 82a 6919541i bk5: 88a 6919359i bk6: 124a 6918995i bk7: 128a 6919013i bk8: 66a 6919758i bk9: 64a 6919941i bk10: 4a 6920934i bk11: 4a 6920938i bk12: 0a 6920982i bk13: 0a 6920985i bk14: 40a 6920525i bk15: 44a 6920290i 
dram_util_bins: 0 0 0 0 0 0 0 0 0 0
dram_eff_bins: 0 0 0 0 0 0 0 0 0 0
mrqq: max=16 avg=0.00371537
Memory Partition 4: 
Cache L2_bank_008:
MSHR contents

Cache L2_bank_009:
MSHR contents

In Dram Latency Queue (total = 0): 
DRAM[4]: 16 bks, busW=4 BL=8 CL=12, tRRD=2 tCCD=6, tRCD=12 tRAS=28 tRP=12 tRC=40
n_cmd=6920979 n_nop=6919314 n_act=29 n_pre=15 n_req=997 n_rd=1028 n_write=593 bw_util=0.0004684
n_activity=10337 dram_eff=0.3136
bk0: 112a 6919156i bk1: 112a 6919148i bk2: 76a 6919546i bk3: 76a 6919530i bk4: 84a 6919252i bk5: 88a 6919257i bk6: 128a 6918893i bk7: 128a 6918928i bk8: 64a 6919838i bk9: 66a 6919749i bk10: 4a 6920955i bk11: 2a 6920956i bk12: 0a 6920980i bk13: 0a 6920981i bk14: 44a 6920438i bk15: 44a 6920242i 
dram_util_bins: 0 0 0 0 0 0 0 0 0 0
dram_eff_bins: 0 0 0 0 0 0 0 0 0 0
mrqq: max=16 avg=0.00384844
Memory Partition 5: 
Cache L2_bank_010:
MSHR contents

Cache L2_bank_011:
MSHR contents

In Dram Latency Queue (total = 0): 
DRAM[5]: 16 bks, busW=4 BL=8 CL=12, tRRD=2 tCCD=6, tRCD=12 tRAS=28 tRP=12 tRC=40
n_cmd=6920979 n_nop=6919332 n_act=30 n_pre=17 n_req=989 n_rd=1022 n_write=578 bw_util=0.0004624
n_activity=10591 dram_eff=0.3021
bk0: 114a 6919166i bk1: 114a 6919165i bk2: 76a 6919603i bk3: 76a 6919590i bk4: 84a 6919578i bk5: 86a 6919409i bk6: 128a 6918992i bk7: 124a 6918998i bk8: 64a 6919878i bk9: 64a 6919914i bk10: 4a 6920953i bk11: 0a 6920979i bk12: 0a 6920983i bk13: 0a 6920984i bk14: 44a 6920401i bk15: 44a 6920355i 
dram_util_bins: 0 0 0 0 0 0 0 0 0 0
dram_eff_bins: 0 0 0 0 0 0 0 0 0 0
mrqq: max=16 avg=0.0034303

========= L2 cache stats =========
L2_cache_bank[0]: Access = 151211, Miss = 262, Miss_rate = 0.002, Pending_hits = 9, Reservation_fails = 0
L2_cache_bank[1]: Access = 155832, Miss = 259, Miss_rate = 0.002, Pending_hits = 10, Reservation_fails = 0
L2_cache_bank[2]: Access = 141618, Miss = 260, Miss_rate = 0.002, Pending_hits = 7, Reservation_fails = 0
L2_cache_bank[3]: Access = 148539, Miss = 258, Miss_rate = 0.002, Pending_hits = 10, Reservation_fails = 0
L2_cache_bank[4]: Access = 140710, Miss = 260, Miss_rate = 0.002, Pending_hits = 5, Reservation_fails = 0
L2_cache_bank[5]: Access = 140379, Miss = 261, Miss_rate = 0.002, Pending_hits = 9, Reservation_fails = 0
L2_cache_bank[6]: Access = 145247, Miss = 258, Miss_rate = 0.002, Pending_hits = 6, Reservation_fails = 0
L2_cache_bank[7]: Access = 141679, Miss = 260, Miss_rate = 0.002, Pending_hits = 9, Reservation_fails = 0
L2_cache_bank[8]: Access = 170918, Miss = 256, Miss_rate = 0.001, Pending_hits = 10, Reservation_fails = 123
L2_cache_bank[9]: Access = 143025, Miss = 258, Miss_rate = 0.002, Pending_hits = 7, Reservation_fails = 0
L2_cache_bank[10]: Access = 175829, Miss = 257, Miss_rate = 0.001, Pending_hits = 7, Reservation_fails = 0
L2_cache_bank[11]: Access = 140692, Miss = 254, Miss_rate = 0.002, Pending_hits = 8, Reservation_fails = 0
L2_total_cache_accesses = 1795679
L2_total_cache_misses = 3103
L2_total_cache_miss_rate = 0.0017
L2_total_cache_pending_hits = 97
L2_total_cache_reservation_fails = 123
L2_total_cache_breakdown:
	L2_cache_stats_breakdown[GLOBAL_ACC_R][HIT] = 1157228
	L2_cache_stats_breakdown[GLOBAL_ACC_R][HIT_RESERVED] = 67
	L2_cache_stats_breakdown[GLOBAL_ACC_R][MISS] = 169
	L2_cache_stats_breakdown[GLOBAL_ACC_R][RESERVATION_FAIL] = 123
	L2_cache_stats_breakdown[CONST_ACC_R][HIT] = 24
	L2_cache_stats_breakdown[CONST_ACC_R][HIT_RESERVED] = 1
	L2_cache_stats_breakdown[CONST_ACC_R][MISS] = 1
	L2_cache_stats_breakdown[GLOBAL_ACC_W][HIT] = 634323
	L2_cache_stats_breakdown[GLOBAL_ACC_W][MISS] = 2535
	L2_cache_stats_breakdown[LOCAL_ACC_W][HIT] = 224
	L2_cache_stats_breakdown[LOCAL_ACC_W][MISS] = 352
	L2_cache_stats_breakdown[INST_ACC_R][HIT] = 680
	L2_cache_stats_breakdown[INST_ACC_R][HIT_RESERVED] = 29
	L2_cache_stats_breakdown[INST_ACC_R][MISS] = 46
L2_cache_data_port_util = 0.034
L2_cache_fill_port_util = 0.000

icnt_total_pkts_mem_to_simt=3943751
icnt_total_pkts_simt_to_mem=2454974
LD_mem_lat_dist  0 0 0 0 0 0 0 0 0 0 0 0 0 0 0 0 0 0 0 0 0 0 0 0 0 0 0
ST_mem_lat_dist  0 0 0 0 0 0 0 0 0 0 0 0 0 0 0 0 0 0 0 0 0 0 0 0 0 0 0
----------------------------Interconnect-DETAILS--------------------------------
Class 0:
Packet latency average = 18.0983
	minimum = 6
	maximum = 174
Network latency average = 15.1813
	minimum = 6
	maximum = 160
Slowest packet = 3492699
Flit latency average = 15.8426
	minimum = 6
	maximum = 159
Slowest flit = 6313769
Fragmentation average = 0
	minimum = 0
	maximum = 0
Injected packet rate average = 0.0146928
	minimum = 0 (at node 0)
	maximum = 0.146419 (at node 12)
Accepted packet rate average = 0.0146928
	minimum = 0 (at node 0)
	maximum = 0.146419 (at node 12)
Injected flit rate average = 0.0360637
	minimum = 0 (at node 0)
	maximum = 0.147399 (at node 12)
Accepted flit rate average= 0.0360637
	minimum = 0 (at node 0)
	maximum = 0.569734 (at node 12)
Injected packet length average = 2.45451
Accepted packet length average = 2.45451
Total in-flight flits = 0 (0 measured)
====== Overall Traffic Statistics ======
====== Traffic class 0 ======
Packet latency average = 19.6301 (36 samples)
	minimum = 6 (36 samples)
	maximum = 161.111 (36 samples)
Network latency average = 14.7214 (36 samples)
	minimum = 6 (36 samples)
	maximum = 123 (36 samples)
Flit latency average = 15.239 (36 samples)
	minimum = 6 (36 samples)
	maximum = 120.5 (36 samples)
Fragmentation average = 0 (36 samples)
	minimum = 0 (36 samples)
	maximum = 0 (36 samples)
Injected packet rate average = 0.0124004 (36 samples)
	minimum = 0 (36 samples)
	maximum = 0.0989709 (36 samples)
Accepted packet rate average = 0.0124004 (36 samples)
	minimum = 0 (36 samples)
	maximum = 0.0989709 (36 samples)
Injected flit rate average = 0.0226287 (36 samples)
	minimum = 0 (36 samples)
	maximum = 0.131213 (36 samples)
Accepted flit rate average = 0.0226287 (36 samples)
	minimum = 0 (36 samples)
	maximum = 0.245774 (36 samples)
Injected packet size average = 1.82483 (36 samples)
Accepted packet size average = 1.82483 (36 samples)
Hops average = 1 (36 samples)
----------------------------END-of-Interconnect-DETAILS-------------------------


gpgpu_simulation_time = 0 days, 0 hrs, 39 min, 54 sec (2394 sec)
gpgpu_simulation_rate = 43270 (inst/sec)
gpgpu_simulation_rate = 2890 (cycle/sec)
GPGPU-Sim: synchronize waiting for inactive GPU simulation
GPGPU-Sim API: Stream Manager State
GPGPU-Sim: detected inactive GPU simulation thread
GPU Execution: 2393.118411
FREE TIME: 0.000003
TIME TO SEND BACK: 0.003454
SEND ARRAY X BACK: 0.000635
SEND ARRAY Y BACK: 0.001744
SEND WEIGHTS BACK: 0.001072
XE: nan
YE: nan
nan
PARTICLE FILTER TOOK 2393.157233
ENTIRE PROGRAM TOOK 2393.195985
