

        *** GPGPU-Sim Simulator Version 3.2.2  [build 0] ***


GPGPU-Sim PTX: simulation mode 0 (can change with PTX_SIM_MODE_FUNC environment variable:
               1=functional simulation only, 0=detailed performance simulator)
GPGPU-Sim: Configuration options:

-network_mode                           1 # Interconnection network mode
-inter_config_file   config_fermi_islip.icnt # Interconnection network config file
-gpgpu_ptx_use_cuobjdump                    1 # Use cuobjdump to extract ptx and sass from binaries
-gpgpu_experimental_lib_support                    0 # Try to extract code from cuda libraries [Broken because of unknown cudaGetExportTable]
-gpgpu_ptx_convert_to_ptxplus                    0 # Convert SASS (native ISA) to ptxplus and run ptxplus
-gpgpu_ptx_force_max_capability                   20 # Force maximum compute capability
-gpgpu_ptx_inst_debug_to_file                    0 # Dump executed instructions' debug information to file
-gpgpu_ptx_inst_debug_file       inst_debug.txt # Executed instructions' debug output file
-gpgpu_ptx_inst_debug_thread_uid                    1 # Thread UID for executed instructions' debug output
-gpgpu_simd_model                       1 # 1 = post-dominator
-gpgpu_shader_core_pipeline              1536:32 # shader core pipeline config, i.e., {<nthread>:<warpsize>}
-gpgpu_tex_cache:l1  4:128:24,L:R:m:N:L,F:128:4,128:2 # per-shader L1 texture cache  (READ-ONLY) config  {<nsets>:<bsize>:<assoc>,<rep>:<wr>:<alloc>:<wr_alloc>,<mshr>:<N>:<merge>,<mq>:<rf>}
-gpgpu_const_cache:l1 64:64:2,L:R:f:N:L,A:2:32,4 # per-shader L1 constant memory cache  (READ-ONLY) config  {<nsets>:<bsize>:<assoc>,<rep>:<wr>:<alloc>:<wr_alloc>,<mshr>:<N>:<merge>,<mq>} 
-gpgpu_cache:il1     4:128:4,L:R:f:N:L,A:2:32,4 # shader L1 instruction cache config  {<nsets>:<bsize>:<assoc>,<rep>:<wr>:<alloc>:<wr_alloc>,<mshr>:<N>:<merge>,<mq>} 
-gpgpu_cache:dl1     32:128:4,L:L:m:N:H,A:32:8,8 # per-shader L1 data cache config  {<nsets>:<bsize>:<assoc>,<rep>:<wr>:<alloc>:<wr_alloc>,<mshr>:<N>:<merge>,<mq> | none}
-gpgpu_cache:dl1PrefL1                 none # per-shader L1 data cache config  {<nsets>:<bsize>:<assoc>,<rep>:<wr>:<alloc>:<wr_alloc>,<mshr>:<N>:<merge>,<mq> | none}
-gpgpu_cache:dl1PreShared                 none # per-shader L1 data cache config  {<nsets>:<bsize>:<assoc>,<rep>:<wr>:<alloc>:<wr_alloc>,<mshr>:<N>:<merge>,<mq> | none}
-gmem_skip_L1D                          0 # global memory access skip L1D cache (implements -Xptxas -dlcm=cg, default=no skip)
-gpgpu_perfect_mem                      0 # enable perfect memory mode (no cache miss)
-n_regfile_gating_group                    4 # group of lanes that should be read/written together)
-gpgpu_clock_gated_reg_file                    0 # enable clock gated reg file for power calculations
-gpgpu_clock_gated_lanes                    0 # enable clock gated lanes for power calculations
-gpgpu_shader_registers                32768 # Number of registers per shader core. Limits number of concurrent CTAs. (default 8192)
-gpgpu_shader_cta                       8 # Maximum number of concurrent CTAs in shader (default 8)
-gpgpu_num_cta_barriers                   16 # Maximum number of named barriers per CTA (default 16)
-gpgpu_n_clusters                      15 # number of processing clusters
-gpgpu_n_cores_per_cluster                    1 # number of simd cores per cluster
-gpgpu_n_cluster_ejection_buffer_size                    8 # number of packets in ejection buffer
-gpgpu_n_ldst_response_buffer_size                    2 # number of response packets in ld/st unit ejection buffer
-gpgpu_shmem_size                   16384 # Size of shared memory per shader core (default 16kB)
-gpgpu_shmem_size                   49152 # Size of shared memory per shader core (default 16kB)
-gpgpu_shmem_size_PrefL1                16384 # Size of shared memory per shader core (default 16kB)
-gpgpu_shmem_size_PrefShared                16384 # Size of shared memory per shader core (default 16kB)
-gpgpu_shmem_num_banks                   32 # Number of banks in the shared memory in each shader core (default 16)
-gpgpu_shmem_limited_broadcast                    0 # Limit shared memory to do one broadcast per cycle (default on)
-gpgpu_shmem_warp_parts                    1 # Number of portions a warp is divided into for shared memory bank conflict check 
-gpgpu_warpdistro_shader                   -1 # Specify which shader core to collect the warp size distribution from
-gpgpu_warp_issue_shader                    0 # Specify which shader core to collect the warp issue distribution from
-gpgpu_local_mem_map                    1 # Mapping from local memory space address to simulated GPU physical address space (default = enabled)
-gpgpu_num_reg_banks                   16 # Number of register banks (default = 8)
-gpgpu_reg_bank_use_warp_id                    0 # Use warp ID in mapping registers to banks (default = off)
-gpgpu_operand_collector_num_units_sp                    6 # number of collector units (default = 4)
-gpgpu_operand_collector_num_units_sfu                    8 # number of collector units (default = 4)
-gpgpu_operand_collector_num_units_mem                    2 # number of collector units (default = 2)
-gpgpu_operand_collector_num_units_gen                    0 # number of collector units (default = 0)
-gpgpu_operand_collector_num_in_ports_sp                    2 # number of collector unit in ports (default = 1)
-gpgpu_operand_collector_num_in_ports_sfu                    1 # number of collector unit in ports (default = 1)
-gpgpu_operand_collector_num_in_ports_mem                    1 # number of collector unit in ports (default = 1)
-gpgpu_operand_collector_num_in_ports_gen                    0 # number of collector unit in ports (default = 0)
-gpgpu_operand_collector_num_out_ports_sp                    2 # number of collector unit in ports (default = 1)
-gpgpu_operand_collector_num_out_ports_sfu                    1 # number of collector unit in ports (default = 1)
-gpgpu_operand_collector_num_out_ports_mem                    1 # number of collector unit in ports (default = 1)
-gpgpu_operand_collector_num_out_ports_gen                    0 # number of collector unit in ports (default = 0)
-gpgpu_coalesce_arch                   13 # Coalescing arch (default = 13, anything else is off for now)
-gpgpu_num_sched_per_core                    2 # Number of warp schedulers per core
-gpgpu_max_insn_issue_per_warp                    1 # Max number of instructions that can be issued per warp in one cycle by scheduler
-gpgpu_simt_core_sim_order                    1 # Select the simulation order of cores in a cluster (0=Fix, 1=Round-Robin)
-gpgpu_pipeline_widths        2,1,1,2,1,1,2 # Pipeline widths ID_OC_SP,ID_OC_SFU,ID_OC_MEM,OC_EX_SP,OC_EX_SFU,OC_EX_MEM,EX_WB
-gpgpu_num_sp_units                     2 # Number of SP units (default=1)
-gpgpu_num_sfu_units                    1 # Number of SF units (default=1)
-gpgpu_num_mem_units                    1 # Number if ldst units (default=1) WARNING: not hooked up to anything
-gpgpu_scheduler                      gto # Scheduler configuration: < lrr | gto | two_level_active > If two_level_active:<num_active_warps>:<inner_prioritization>:<outer_prioritization>For complete list of prioritization values see shader.h enum scheduler_prioritization_typeDefault: gto
-gpgpu_dram_scheduler                    1 # 0 = fifo, 1 = FR-FCFS (defaul)
-gpgpu_dram_partition_queues              8:8:8:8 # i2$:$2d:d2$:$2i
-l2_ideal                               0 # Use a ideal L2 cache that always hit
-gpgpu_cache:dl2     64:128:8,L:B:m:W:L,A:32:4,4:0,32 # unified banked L2 data cache config  {<nsets>:<bsize>:<assoc>,<rep>:<wr>:<alloc>:<wr_alloc>,<mshr>:<N>:<merge>,<mq>}
-gpgpu_cache:dl2_texture_only                    0 # L2 cache used for texture only
-gpgpu_n_mem                            6 # number of memory modules (e.g. memory controllers) in gpu
-gpgpu_n_sub_partition_per_mchannel                    2 # number of memory subpartition in each memory module
-gpgpu_n_mem_per_ctrlr                    2 # number of memory chips per memory controller
-gpgpu_memlatency_stat                   14 # track and display latency statistics 0x2 enables MC, 0x4 enables queue logs
-gpgpu_frfcfs_dram_sched_queue_size                   16 # 0 = unlimited (default); # entries per chip
-gpgpu_dram_return_queue_size                   84 # 0 = unlimited (default); # entries per chip
-gpgpu_dram_buswidth                    4 # default = 4 bytes (8 bytes per cycle at DDR)
-gpgpu_dram_burst_length                    8 # Burst length of each DRAM request (default = 4 data bus cycle)
-dram_data_command_freq_ratio                    4 # Frequency ratio between DRAM data bus and command bus (default = 2 times, i.e. DDR)
-gpgpu_dram_timing_opt nbk=16:CCD=2:RRD=6:RCD=12:RAS=28:RP=12:RC=40: CL=12:WL=4:CDLR=5:WR=12:nbkgrp=4:CCDL=3:RTPL=2 # DRAM timing parameters = {nbk:tCCD:tRRD:tRCD:tRAS:tRP:tRC:CL:WL:tCDLR:tWR:nbkgrp:tCCDL:tRTPL}
-rop_latency                          120 # ROP queue latency (default 85)
-dram_latency                         100 # DRAM latency (default 30)
-gpgpu_mem_addr_mapping dramid@8;00000000.00000000.00000000.00000000.0000RRRR.RRRRRRRR.BBBCCCCB.CCSSSSSS # mapping memory address to dram model {dramid@<start bit>;<memory address map>}
-gpgpu_mem_addr_test                    0 # run sweep test to check address mapping for aliased address
-gpgpu_mem_address_mask                    1 # 0 = old addressing mask, 1 = new addressing mask, 2 = new add. mask + flipped bank sel and chip sel bits
-gpuwattch_xml_file  gpuwattch_gtx480.xml # GPUWattch XML file
-power_simulation_enabled                    1 # Turn on power simulator (1=On, 0=Off)
-power_per_cycle_dump                    0 # Dump detailed power output each cycle
-power_trace_enabled                    0 # produce a file for the power trace (1=On, 0=Off)
-power_trace_zlevel                     6 # Compression level of the power trace output log (0=no comp, 9=highest)
-steady_power_levels_enabled                    0 # produce a file for the steady power levels (1=On, 0=Off)
-steady_state_definition                  8:4 # allowed deviation:number of samples
-gpgpu_max_cycle                        0 # terminates gpu simulation early (0 = no limit)
-gpgpu_max_insn                         0 # terminates gpu simulation early (0 = no limit)
-gpgpu_max_cta                          0 # terminates gpu simulation early (0 = no limit)
-gpgpu_runtime_stat                   500 # display runtime statistics such as dram utilization {<freq>:<flag>}
-liveness_message_freq                    1 # Minimum number of seconds between simulation liveness messages (0 = always print)
-gpgpu_flush_l1_cache                    0 # Flush L1 cache at the end of each kernel call
-gpgpu_flush_l2_cache                    0 # Flush L2 cache at the end of each kernel call
-gpgpu_deadlock_detect                    1 # Stop the simulation at deadlock (1=on (default), 0=off)
-gpgpu_ptx_instruction_classification                    0 # if enabled will classify ptx instruction types per kernel (Max 255 kernels now)
-gpgpu_ptx_sim_mode                     0 # Select between Performance (default) or Functional simulation (1)
-gpgpu_clock_domains 700.0:700.0:700.0:700.0 # Clock Domain Frequencies in MhZ {<Core Clock>:<ICNT Clock>:<L2 Clock>:<DRAM Clock>}
-gpgpu_max_concurrent_kernel                    8 # maximum kernels that can run concurrently on GPU
-gpgpu_cflog_interval                    0 # Interval between each snapshot in control flow logger
-visualizer_enabled                     0 # Turn on visualizer output (1=On, 0=Off)
-visualizer_outputfile                 NULL # Specifies the output log file for visualizer
-visualizer_zlevel                      6 # Compression level of the visualizer output log (0=no comp, 9=highest)
-trace_enabled                          0 # Turn on traces
-trace_components                    none # comma seperated list of traces to enable. Complete list found in trace_streams.tup. Default none
-trace_sampling_core                    0 # The core which is printed using CORE_DPRINTF. Default 0
-trace_sampling_memory_partition                   -1 # The memory partition which is printed using MEMPART_DPRINTF. Default -1 (i.e. all)
-enable_ptx_file_line_stats                    1 # Turn on PTX source line statistic profiling. (1 = On)
-ptx_line_stats_filename gpgpu_inst_stats.txt # Output file for PTX source line statistics.
-save_embedded_ptx                      0 # saves ptx files embedded in binary as <n>.ptx
-keep                                   0 # keep intermediate files created by GPGPU-Sim when interfacing with external programs
-gpgpu_ptx_save_converted_ptxplus                    0 # Saved converted ptxplus to a file
-ptx_opcode_latency_int         4,13,4,5,145 # Opcode latencies for integers <ADD,MAX,MUL,MAD,DIV>Default 1,1,19,25,145
-ptx_opcode_latency_fp          4,13,4,5,39 # Opcode latencies for single precision floating points <ADD,MAX,MUL,MAD,DIV>Default 1,1,1,1,30
-ptx_opcode_latency_dp         8,19,8,8,330 # Opcode latencies for double precision floating points <ADD,MAX,MUL,MAD,DIV>Default 8,8,8,8,335
-ptx_opcode_initiation_int            1,2,2,1,8 # Opcode initiation intervals for integers <ADD,MAX,MUL,MAD,DIV>Default 1,1,4,4,32
-ptx_opcode_initiation_fp            1,2,1,1,4 # Opcode initiation intervals for single precision floating points <ADD,MAX,MUL,MAD,DIV>Default 1,1,1,1,5
-ptx_opcode_initiation_dp         8,16,8,8,130 # Opcode initiation intervals for double precision floating points <ADD,MAX,MUL,MAD,DIV>Default 8,8,8,8,130
DRAM Timing Options:
nbk                                    16 # number of banks
CCD                                     2 # column to column delay
RRD                                     6 # minimal delay between activation of rows in different banks
RCD                                    12 # row to column delay
RAS                                    28 # time needed to activate row
RP                                     12 # time needed to precharge (deactivate) row
RC                                     40 # row cycle time
CDLR                                    5 # switching from write to read (changes tWTR)
WR                                     12 # last data-in to row precharge
CL                                     12 # CAS latency
WL                                      4 # Write latency
nbkgrp                                  4 # number of bank groups
CCDL                                    3 # column to column delay between accesses to different bank groups
RTPL                                    2 # read to precharge delay between accesses to different bank groups
Total number of memory sub partition = 12
addr_dec_mask[CHIP]  = 0000000000000000 	high:64 low:0
addr_dec_mask[BK]    = 000000000000e100 	high:16 low:8
addr_dec_mask[ROW]   = 000000000fff0000 	high:28 low:16
addr_dec_mask[COL]   = 0000000000001eff 	high:13 low:0
addr_dec_mask[BURST] = 000000000000003f 	high:6 low:0
sub_partition_id_mask = 0000000000000100
GPGPU-Sim uArch: clock freqs: 700000000.000000:700000000.000000:700000000.000000:700000000.000000
GPGPU-Sim uArch: clock periods: 0.00000000142857142857:0.00000000142857142857:0.00000000142857142857:0.00000000142857142857
*** Initializing Memory Statistics ***
GPGPU-Sim uArch: interconnect node map (shaderID+MemID to icntID)
GPGPU-Sim uArch: Memory nodes ID start from index: 15
GPGPU-Sim uArch:    0   1   2   3   4
GPGPU-Sim uArch:    5   6   7   8   9
GPGPU-Sim uArch:   10  11  12  13  14
GPGPU-Sim uArch:   15  16  17  18  19
GPGPU-Sim uArch:   20  21  22  23  24
GPGPU-Sim uArch:   25  26
GPGPU-Sim uArch: interconnect node reverse map (icntID to shaderID+MemID)
GPGPU-Sim uArch: Memory nodes start from ID: 15
GPGPU-Sim uArch:    0   1   2   3   4
GPGPU-Sim uArch:    5   6   7   8   9
GPGPU-Sim uArch:   10  11  12  13  14
GPGPU-Sim uArch:   15  16  17  18  19
GPGPU-Sim uArch:   20  21  22  23  24
GPGPU-Sim uArch:   25  26
5823297ec22ceb7244fb68f6724e345c  /home/gpgpu-sim/ECE523_Repo/benchmarks/test/particlefilter_float-rodinia-3.1
GPGPU-Sim uArch: performance model initialization complete.
GPGPU-Sim PTX: __cudaRegisterFatBinary, fat_cubin_handle = 1, filename=ex_particle_CUDA_float_seq.cu
self exe links to: /home/gpgpu-sim/ECE523_Repo/benchmarks/test/particlefilter_float-rodinia-3.1
Running md5sum using "md5sum /home/gpgpu-sim/ECE523_Repo/benchmarks/test/particlefilter_float-rodinia-3.1 "
Running cuobjdump using "$CUDA_INSTALL_PATH/bin/cuobjdump -ptx -elf -sass /home/gpgpu-sim/ECE523_Repo/benchmarks/test/particlefilter_float-rodinia-3.1 > _cuobjdump_complete_output_ZxLuNo"
Parsing file _cuobjdump_complete_output_ZxLuNo
######### cuobjdump parser ########
## Adding new section PTX
Adding ptx filename: _cuobjdump_1.ptx
Adding arch: sm_30
Adding identifier: ex_particle_CUDA_float_seq.cu
## Adding new section ELF
Adding arch: sm_30
Adding identifier: ex_particle_CUDA_float_seq.cu
## Adding new section PTX
Adding ptx filename: _cuobjdump_2.ptx
Adding arch: sm_13
Adding identifier: ex_particle_CUDA_float_seq.cu
## Adding new section ELF
Adding arch: sm_13
Adding identifier: ex_particle_CUDA_float_seq.cu
## Adding new section ELF
Adding arch: sm_20
Adding identifier: ex_particle_CUDA_float_seq.cu
## Adding new section PTX
Adding ptx filename: _cuobjdump_3.ptx
Adding arch: sm_20
Adding identifier: ex_particle_CUDA_float_seq.cu
## Adding new section ELF
Adding arch: sm_10
Adding identifier: ex_particle_CUDA_float_seq.cu
## Adding new section PTX
Adding ptx filename: _cuobjdump_4.ptx
Adding arch: sm_10
Adding identifier: ex_particle_CUDA_float_seq.cu
Done parsing!!!
GPGPU-Sim PTX: __cudaRegisterFunction _Z17likelihood_kernelPdS_S_S_S_PiS0_S_PhS_S_iiiiiiS0_S_ : hostFun 0x0x402740, fat_cubin_handle = 1
GPGPU-Sim PTX: allocating constant region for "__cudart_i2opi_d" from 0x100 to 0x190 (global memory space) 1
GPGPU-Sim PTX: allocating stack frame region for .param "func_retval0" from 0x0 to 0x8
GPGPU-Sim PTX: allocating stack frame region for .param "__internal_trig_reduction_slowpathd_param_0" from 0x8 to 0x10
GPGPU-Sim PTX: allocating stack frame region for .param "__internal_trig_reduction_slowpathd_param_1" from 0x10 to 0x18
GPGPU-Sim PTX: allocating stack frame region for .local "__local_depot0" from 0x80 to 0xa8
GPGPU-Sim PTX: Warning -- ignoring pragma 'nounroll'
GPGPU-Sim PTX: instruction assembly for function '__internal_trig_reduction_slowpathd'...   done.
GPGPU-Sim PTX: finding reconvergence points for '__internal_trig_reduction_slowpathd'...
GPGPU-Sim PTX: Finding dominators for '__internal_trig_reduction_slowpathd'...
GPGPU-Sim PTX: Finding immediate dominators for '__internal_trig_reduction_slowpathd'...
GPGPU-Sim PTX: Finding postdominators for '__internal_trig_reduction_slowpathd'...
GPGPU-Sim PTX: Finding immediate postdominators for '__internal_trig_reduction_slowpathd'...
GPGPU-Sim PTX: pre-decoding instructions for '__internal_trig_reduction_slowpathd'...
GPGPU-Sim PTX: reconvergence points for __internal_trig_reduction_slowpathd...
GPGPU-Sim PTX:  1 (potential) branch divergence @  PC=0x0a0 (_1.ptx:66) @%p1 bra BB0_2;
GPGPU-Sim PTX:    immediate post dominator      @  PC=0x158 (_1.ptx:105) mov.u32 %r21, 1;
GPGPU-Sim PTX:  2 (potential) branch divergence @  PC=0x0b0 (_1.ptx:69) bra.uni BB0_4;
GPGPU-Sim PTX:    immediate post dominator      @  PC=0x158 (_1.ptx:105) mov.u32 %r21, 1;
GPGPU-Sim PTX:  3 (potential) branch divergence @  PC=0x150 (_1.ptx:102) @%p3 bra BB0_3;
GPGPU-Sim PTX:    immediate post dominator      @  PC=0x158 (_1.ptx:105) mov.u32 %r21, 1;
GPGPU-Sim PTX:  4 (potential) branch divergence @  PC=0x1b0 (_1.ptx:121) @%p4 bra BB0_6;
GPGPU-Sim PTX:    immediate post dominator      @  PC=0x200 (_1.ptx:138) shr.u64 %rl49, %rl75, 62;
GPGPU-Sim PTX:  5 (potential) branch divergence @  PC=0x280 (_1.ptx:161) @%p6 bra BB0_8;
GPGPU-Sim PTX:    immediate post dominator      @  PC=0x2d0 (_1.ptx:181) clz.b64 %r11, %rl79;
GPGPU-Sim PTX:  6 (potential) branch divergence @  PC=0x2c0 (_1.ptx:174) bra.uni BB0_9;
GPGPU-Sim PTX:    immediate post dominator      @  PC=0x2d0 (_1.ptx:181) clz.b64 %r11, %rl79;
GPGPU-Sim PTX:  7 (potential) branch divergence @  PC=0x2e0 (_1.ptx:184) @%p8 bra BB0_11;
GPGPU-Sim PTX:    immediate post dominator      @  PC=0x310 (_1.ptx:195) mov.u64 %rl58, -3958705157555305931;
GPGPU-Sim PTX: ... end of reconvergence points for __internal_trig_reduction_slowpathd
GPGPU-Sim PTX: ... done pre-decoding instructions for '__internal_trig_reduction_slowpathd'.
GPGPU-Sim PTX: allocating stack frame region for .param "func_retval0" from 0x0 to 0x8
GPGPU-Sim PTX: allocating stack frame region for .param "_Z17calcLikelihoodSumPhPiii_param_0" from 0x8 to 0x10
GPGPU-Sim PTX: allocating stack frame region for .param "_Z17calcLikelihoodSumPhPiii_param_1" from 0x10 to 0x18
GPGPU-Sim PTX: allocating stack frame region for .param "_Z17calcLikelihoodSumPhPiii_param_2" from 0x18 to 0x1c
GPGPU-Sim PTX: allocating stack frame region for .param "_Z17calcLikelihoodSumPhPiii_param_3" from 0x1c to 0x20
GPGPU-Sim PTX: instruction assembly for function '_Z17calcLikelihoodSumPhPiii'...   done.
GPGPU-Sim PTX: finding reconvergence points for '_Z17calcLikelihoodSumPhPiii'...
GPGPU-Sim PTX: Finding dominators for '_Z17calcLikelihoodSumPhPiii'...
GPGPU-Sim PTX: Finding immediate dominators for '_Z17calcLikelihoodSumPhPiii'...
GPGPU-Sim PTX: Finding postdominators for '_Z17calcLikelihoodSumPhPiii'...
GPGPU-Sim PTX: Finding immediate postdominators for '_Z17calcLikelihoodSumPhPiii'...
GPGPU-Sim PTX: pre-decoding instructions for '_Z17calcLikelihoodSumPhPiii'...
GPGPU-Sim PTX: reconvergence points for _Z17calcLikelihoodSumPhPiii...
GPGPU-Sim PTX:  1 (potential) branch divergence @  PC=0x3d8 (_1.ptx:245) @%p3 bra BB1_2;
GPGPU-Sim PTX:    immediate post dominator      @  PC=0x5c8 (_1.ptx:354) st.param.f64[func_retval0+0], %fd30;
GPGPU-Sim PTX:  2 (potential) branch divergence @  PC=0x3e8 (_1.ptx:248) bra.uni BB1_10;
GPGPU-Sim PTX:    immediate post dominator      @  PC=0x5c8 (_1.ptx:354) st.param.f64[func_retval0+0], %fd30;
GPGPU-Sim PTX:  3 (potential) branch divergence @  PC=0x4b8 (_1.ptx:289) @%p2 bra BB1_6;
GPGPU-Sim PTX:    immediate post dominator      @  PC=0x508 (_1.ptx:309) add.s32 %r20, %r6, -228;
GPGPU-Sim PTX:  4 (potential) branch divergence @  PC=0x500 (_1.ptx:306) @%p5 bra BB1_5;
GPGPU-Sim PTX:    immediate post dominator      @  PC=0x508 (_1.ptx:309) add.s32 %r20, %r6, -228;
GPGPU-Sim PTX:  5 (potential) branch divergence @  PC=0x528 (_1.ptx:316) @%p2 bra BB1_9;
GPGPU-Sim PTX:    immediate post dominator      @  PC=0x588 (_1.ptx:339) sub.f64 %fd24, %fd27, %fd29;
GPGPU-Sim PTX:  6 (potential) branch divergence @  PC=0x580 (_1.ptx:335) @%p7 bra BB1_8;
GPGPU-Sim PTX:    immediate post dominator      @  PC=0x588 (_1.ptx:339) sub.f64 %fd24, %fd27, %fd29;
GPGPU-Sim PTX:  7 (potential) branch divergence @  PC=0x5c0 (_1.ptx:350) @%p8 bra BB1_3;
GPGPU-Sim PTX:    immediate post dominator      @  PC=0x5c8 (_1.ptx:354) st.param.f64[func_retval0+0], %fd30;
GPGPU-Sim PTX: ... end of reconvergence points for _Z17calcLikelihoodSumPhPiii
GPGPU-Sim PTX: ... done pre-decoding instructions for '_Z17calcLikelihoodSumPhPiii'.
GPGPU-Sim PTX: allocating stack frame region for .param "_Z7cdfCalcPdS_i_param_0" from 0x0 to 0x8
GPGPU-Sim PTX: allocating stack frame region for .param "_Z7cdfCalcPdS_i_param_1" from 0x8 to 0x10
GPGPU-Sim PTX: allocating stack frame region for .param "_Z7cdfCalcPdS_i_param_2" from 0x10 to 0x14
GPGPU-Sim PTX: instruction assembly for function '_Z7cdfCalcPdS_i'...   done.
GPGPU-Sim PTX: finding reconvergence points for '_Z7cdfCalcPdS_i'...
GPGPU-Sim PTX: Finding dominators for '_Z7cdfCalcPdS_i'...
GPGPU-Sim PTX: Finding immediate dominators for '_Z7cdfCalcPdS_i'...
GPGPU-Sim PTX: Finding postdominators for '_Z7cdfCalcPdS_i'...
GPGPU-Sim PTX: Finding immediate postdominators for '_Z7cdfCalcPdS_i'...
GPGPU-Sim PTX: pre-decoding instructions for '_Z7cdfCalcPdS_i'...
GPGPU-Sim PTX: reconvergence points for _Z7cdfCalcPdS_i...
GPGPU-Sim PTX:  1 (potential) branch divergence @  PC=0x608 (_1.ptx:378) @%p1 bra BB2_3;
GPGPU-Sim PTX:    immediate post dominator      @  PC=0x698 (_1.ptx:408) ret;
GPGPU-Sim PTX:  2 (potential) branch divergence @  PC=0x690 (_1.ptx:404) @%p2 bra BB2_2;
GPGPU-Sim PTX:    immediate post dominator      @  PC=0x698 (_1.ptx:408) ret;
GPGPU-Sim PTX: ... end of reconvergence points for _Z7cdfCalcPdS_i
GPGPU-Sim PTX: ... done pre-decoding instructions for '_Z7cdfCalcPdS_i'.
GPGPU-Sim PTX: allocating stack frame region for .param "func_retval0" from 0x0 to 0x8
GPGPU-Sim PTX: allocating stack frame region for .param "_Z7d_randuPii_param_0" from 0x8 to 0x10
GPGPU-Sim PTX: allocating stack frame region for .param "_Z7d_randuPii_param_1" from 0x10 to 0x14
GPGPU-Sim PTX: instruction assembly for function '_Z7d_randuPii'...   done.
GPGPU-Sim PTX: finding reconvergence points for '_Z7d_randuPii'...
GPGPU-Sim PTX: Finding dominators for '_Z7d_randuPii'...
GPGPU-Sim PTX: Finding immediate dominators for '_Z7d_randuPii'...
GPGPU-Sim PTX: Finding postdominators for '_Z7d_randuPii'...
GPGPU-Sim PTX: Finding immediate postdominators for '_Z7d_randuPii'...
GPGPU-Sim PTX: pre-decoding instructions for '_Z7d_randuPii'...
GPGPU-Sim PTX: reconvergence points for _Z7d_randuPii...
GPGPU-Sim PTX: ... end of reconvergence points for _Z7d_randuPii
GPGPU-Sim PTX: ... done pre-decoding instructions for '_Z7d_randuPii'.
GPGPU-Sim PTX: allocating stack frame region for .param "func_retval0" from 0x0 to 0x8
GPGPU-Sim PTX: allocating stack frame region for .param "_Z7d_randnPii_param_0" from 0x8 to 0x10
GPGPU-Sim PTX: allocating stack frame region for .param "_Z7d_randnPii_param_1" from 0x10 to 0x14
GPGPU-Sim PTX: allocating stack frame region for .local "__local_depot4" from 0x14 to 0x18
GPGPU-Sim PTX: allocating stack frame region for .param "param0" from 0x18 to 0x20
GPGPU-Sim PTX: allocating stack frame region for .param "param1" from 0x20 to 0x28
GPGPU-Sim PTX: allocating stack frame region for .param "retval0" from 0x28 to 0x30
GPGPU-Sim PTX: Warning %temp was declared previous at _1.ptx:634 skipping new declaration
GPGPU-Sim PTX: Warning %temp was declared previous at _1.ptx:634 skipping new declaration
GPGPU-Sim PTX: Warning %temp was declared previous at _1.ptx:634 skipping new declaration
GPGPU-Sim PTX: Warning %temp was declared previous at _1.ptx:634 skipping new declaration
GPGPU-Sim PTX: Warning %temp was declared previous at _1.ptx:634 skipping new declaration
GPGPU-Sim PTX: instruction assembly for function '_Z7d_randnPii'...   done.
GPGPU-Sim PTX: finding reconvergence points for '_Z7d_randnPii'...
GPGPU-Sim PTX: Finding dominators for '_Z7d_randnPii'...
GPGPU-Sim PTX: Finding immediate dominators for '_Z7d_randnPii'...
GPGPU-Sim PTX: Finding postdominators for '_Z7d_randnPii'...
GPGPU-Sim PTX: Finding immediate postdominators for '_Z7d_randnPii'...
GPGPU-Sim PTX: pre-decoding instructions for '_Z7d_randnPii'...
GPGPU-Sim PTX: reconvergence points for _Z7d_randnPii...
GPGPU-Sim PTX:  1 (potential) branch divergence @  PC=0x840 (_1.ptx:510) @%p1 bra BB4_7;
GPGPU-Sim PTX:    immediate post dominator      @  PC=0xa38 (_1.ptx:635) mov.b64 {%temp, %r44}, %fd116;
GPGPU-Sim PTX:  2 (potential) branch divergence @  PC=0x8a8 (_1.ptx:533) @%p2 bra BB4_2;
GPGPU-Sim PTX:    immediate post dominator      @  PC=0x8f0 (_1.ptx:562) add.s32 %r4, %r43, 1;
GPGPU-Sim PTX:  3 (potential) branch divergence @  PC=0x8b0 (_1.ptx:534) bra.uni BB4_3;
GPGPU-Sim PTX:    immediate post dominator      @  PC=0x8f0 (_1.ptx:562) add.s32 %r4, %r43, 1;
GPGPU-Sim PTX:  4 (potential) branch divergence @  PC=0x910 (_1.ptx:569) @%p3 bra BB4_5;
GPGPU-Sim PTX:    immediate post dominator      @  PC=0xa00 (_1.ptx:619) and.b32 %r33, %r4, 2;
GPGPU-Sim PTX:  5 (potential) branch divergence @  PC=0x990 (_1.ptx:593) bra.uni BB4_6;
GPGPU-Sim PTX:    immediate post dominator      @  PC=0xa00 (_1.ptx:619) and.b32 %r33, %r4, 2;
GPGPU-Sim PTX:  6 (potential) branch divergence @  PC=0xa20 (_1.ptx:624) bra.uni BB4_8;
GPGPU-Sim PTX:    immediate post dominator      @  PC=0xa38 (_1.ptx:635) mov.b64 {%temp, %r44}, %fd116;
GPGPU-Sim PTX:  7 (potential) branch divergence @  PC=0xa60 (_1.ptx:647) @%p7 bra BB4_15;
GPGPU-Sim PTX:    immediate post dominator      @  PC=0xcf0 (_1.ptx:817) mul.f64 %fd109, %fd116, 0dC000000000000000;
GPGPU-Sim PTX:  8 (potential) branch divergence @  PC=0xa78 (_1.ptx:653) @%p8 bra BB4_14;
GPGPU-Sim PTX:    immediate post dominator      @  PC=0xcf0 (_1.ptx:817) mul.f64 %fd109, %fd116, 0dC000000000000000;
GPGPU-Sim PTX:  9 (potential) branch divergence @  PC=0xa88 (_1.ptx:657) @%p9 bra BB4_13;
GPGPU-Sim PTX:    immediate post dominator      @  PC=0xcf0 (_1.ptx:817) mul.f64 %fd109, %fd116, 0dC000000000000000;
GPGPU-Sim PTX: 10 (potential) branch divergence @  PC=0xa98 (_1.ptx:661) @%p10 bra BB4_21;
GPGPU-Sim PTX:    immediate post dominator      @  PC=0xcf0 (_1.ptx:817) mul.f64 %fd109, %fd116, 0dC000000000000000;
GPGPU-Sim PTX: 11 (potential) branch divergence @  PC=0xab0 (_1.ptx:666) bra.uni BB4_21;
GPGPU-Sim PTX:    immediate post dominator      @  PC=0xcf0 (_1.ptx:817) mul.f64 %fd109, %fd116, 0dC000000000000000;
GPGPU-Sim PTX: 12 (potential) branch divergence @  PC=0xac0 (_1.ptx:671) bra.uni BB4_21;
GPGPU-Sim PTX:    immediate post dominator      @  PC=0xcf0 (_1.ptx:817) mul.f64 %fd109, %fd116, 0dC000000000000000;
GPGPU-Sim PTX: 13 (potential) branch divergence @  PC=0xad0 (_1.ptx:676) bra.uni BB4_21;
GPGPU-Sim PTX:    immediate post dominator      @  PC=0xcf0 (_1.ptx:817) mul.f64 %fd109, %fd116, 0dC000000000000000;
GPGPU-Sim PTX: 14 (potential) branch divergence @  PC=0xae0 (_1.ptx:681) @%p11 bra BB4_17;
GPGPU-Sim PTX:    immediate post dominator      @  PC=0xb18 (_1.ptx:703) shr.s32 %r36, %r44, 20;
GPGPU-Sim PTX: 15 (potential) branch divergence @  PC=0xaf0 (_1.ptx:684) bra.uni BB4_18;
GPGPU-Sim PTX:    immediate post dominator      @  PC=0xb18 (_1.ptx:703) shr.s32 %r36, %r44, 20;
GPGPU-Sim PTX: 16 (potential) branch divergence @  PC=0xb48 (_1.ptx:712) @%p12 bra BB4_19;
GPGPU-Sim PTX:    immediate post dominator      @  PC=0xb80 (_1.ptx:734) add.f64 %fd67, %fd115, 0d3FF0000000000000;
GPGPU-Sim PTX: 17 (potential) branch divergence @  PC=0xb50 (_1.ptx:713) bra.uni BB4_20;
GPGPU-Sim PTX:    immediate post dominator      @  PC=0xb80 (_1.ptx:734) add.f64 %fd67, %fd115, 0d3FF0000000000000;
GPGPU-Sim PTX: ... end of reconvergence points for _Z7d_randnPii
GPGPU-Sim PTX: ... done pre-decoding instructions for '_Z7d_randnPii'.
GPGPU-Sim PTX: allocating stack frame region for .param "func_retval0" from 0x0 to 0x8
GPGPU-Sim PTX: allocating stack frame region for .param "_Z13updateWeightsPdS_i_param_0" from 0x8 to 0x10
GPGPU-Sim PTX: allocating stack frame region for .param "_Z13updateWeightsPdS_i_param_1" from 0x10 to 0x18
GPGPU-Sim PTX: allocating stack frame region for .param "_Z13updateWeightsPdS_i_param_2" from 0x18 to 0x1c
GPGPU-Sim PTX: instruction assembly for function '_Z13updateWeightsPdS_i'...   done.
GPGPU-Sim PTX: finding reconvergence points for '_Z13updateWeightsPdS_i'...
GPGPU-Sim PTX: Finding dominators for '_Z13updateWeightsPdS_i'...
GPGPU-Sim PTX: Finding immediate dominators for '_Z13updateWeightsPdS_i'...
GPGPU-Sim PTX: Finding postdominators for '_Z13updateWeightsPdS_i'...
GPGPU-Sim PTX: Finding immediate postdominators for '_Z13updateWeightsPdS_i'...
GPGPU-Sim PTX: pre-decoding instructions for '_Z13updateWeightsPdS_i'...
GPGPU-Sim PTX: reconvergence points for _Z13updateWeightsPdS_i...
GPGPU-Sim PTX:  1 (potential) branch divergence @  PC=0xd28 (_1.ptx:841) @%p1 bra BB5_2;
GPGPU-Sim PTX:    immediate post dominator      @  PC=0xfb8 (_1.ptx:981) st.param.f64[func_retval0+0], %fd50;
GPGPU-Sim PTX:  2 (potential) branch divergence @  PC=0xd38 (_1.ptx:844) bra.uni BB5_9;
GPGPU-Sim PTX:    immediate post dominator      @  PC=0xfb8 (_1.ptx:981) st.param.f64[func_retval0+0], %fd50;
GPGPU-Sim PTX:  3 (potential) branch divergence @  PC=0xda0 (_1.ptx:869) @%p4 bra BB5_5;
GPGPU-Sim PTX:    immediate post dominator      @  PC=0xf70 (_1.ptx:966) mul.f64 %fd48, %fd3, %fd49;
GPGPU-Sim PTX:  4 (potential) branch divergence @  PC=0xdd8 (_1.ptx:880) bra.uni BB5_8;
GPGPU-Sim PTX:    immediate post dominator      @  PC=0xf70 (_1.ptx:966) mul.f64 %fd48, %fd3, %fd49;
GPGPU-Sim PTX:  5 (potential) branch divergence @  PC=0xee8 (_1.ptx:935) @%p7 bra BB5_7;
GPGPU-Sim PTX:    immediate post dominator      @  PC=0xf70 (_1.ptx:966) mul.f64 %fd48, %fd3, %fd49;
GPGPU-Sim PTX:  6 (potential) branch divergence @  PC=0xf50 (_1.ptx:955) bra.uni BB5_8;
GPGPU-Sim PTX:    immediate post dominator      @  PC=0xf70 (_1.ptx:966) mul.f64 %fd48, %fd3, %fd49;
GPGPU-Sim PTX:  7 (potential) branch divergence @  PC=0xfb0 (_1.ptx:977) @%p9 bra BB5_3;
GPGPU-Sim PTX:    immediate post dominator      @  PC=0xfb8 (_1.ptx:981) st.param.f64[func_retval0+0], %fd50;
GPGPU-Sim PTX: ... end of reconvergence points for _Z13updateWeightsPdS_i
GPGPU-Sim PTX: ... done pre-decoding instructions for '_Z13updateWeightsPdS_i'.
GPGPU-Sim PTX: allocating stack frame region for .param "func_retval0" from 0x0 to 0x4
GPGPU-Sim PTX: allocating stack frame region for .param "_Z12findIndexBinPdiid_param_0" from 0x4 to 0xc
GPGPU-Sim PTX: allocating stack frame region for .param "_Z12findIndexBinPdiid_param_1" from 0xc to 0x10
GPGPU-Sim PTX: allocating stack frame region for .param "_Z12findIndexBinPdiid_param_2" from 0x10 to 0x14
GPGPU-Sim PTX: allocating stack frame region for .param "_Z12findIndexBinPdiid_param_3" from 0x14 to 0x1c
GPGPU-Sim PTX: instruction assembly for function '_Z12findIndexBinPdiid'...   done.
GPGPU-Sim PTX: finding reconvergence points for '_Z12findIndexBinPdiid'...
GPGPU-Sim PTX: Finding dominators for '_Z12findIndexBinPdiid'...
GPGPU-Sim PTX: Finding immediate dominators for '_Z12findIndexBinPdiid'...
GPGPU-Sim PTX: Finding postdominators for '_Z12findIndexBinPdiid'...
GPGPU-Sim PTX: Finding immediate postdominators for '_Z12findIndexBinPdiid'...
GPGPU-Sim PTX: pre-decoding instructions for '_Z12findIndexBinPdiid'...
GPGPU-Sim PTX: reconvergence points for _Z12findIndexBinPdiid...
GPGPU-Sim PTX:  1 (potential) branch divergence @  PC=0xfe0 (_1.ptx:1002) @%p1 bra BB6_11;
GPGPU-Sim PTX:    immediate post dominator      @ 
GPGPU-Sim PTX:  2 (potential) branch divergence @  PC=0x1000 (_1.ptx:1010) @%p2 bra BB6_11;
GPGPU-Sim PTX:    immediate post dominator      @ 
GPGPU-Sim PTX:  3 (potential) branch divergence @  PC=0x1060 (_1.ptx:1027) @%p3 bra BB6_10;
GPGPU-Sim PTX:    immediate post dominator      @ 
GPGPU-Sim PTX:  4 (potential) branch divergence @  PC=0x1070 (_1.ptx:1031) @%p4 bra BB6_12;
GPGPU-Sim PTX:    immediate post dominator      @ 
GPGPU-Sim PTX:  5 (potential) branch divergence @  PC=0x1090 (_1.ptx:1038) @%p5 bra BB6_12;
GPGPU-Sim PTX:    immediate post dominator      @ 
GPGPU-Sim PTX:  6 (potential) branch divergence @  PC=0x10a8 (_1.ptx:1043) @%p6 bra BB6_10;
GPGPU-Sim PTX:    immediate post dominator      @ 
GPGPU-Sim PTX:  7 (potential) branch divergence @  PC=0x10d0 (_1.ptx:1050) @%p9 bra BB6_8;
GPGPU-Sim PTX:    immediate post dominator      @  PC=0x1130 (_1.ptx:1072) add.s32 %r19, %r27, 1;
GPGPU-Sim PTX:  8 (potential) branch divergence @  PC=0x10d8 (_1.ptx:1051) bra.uni BB6_9;
GPGPU-Sim PTX:    immediate post dominator      @  PC=0x1130 (_1.ptx:1072) add.s32 %r19, %r27, 1;
GPGPU-Sim PTX:  9 (potential) branch divergence @  PC=0x1128 (_1.ptx:1068) @%p12 bra BB6_8;
GPGPU-Sim PTX:    immediate post dominator      @  PC=0x1130 (_1.ptx:1072) add.s32 %r19, %r27, 1;
GPGPU-Sim PTX: 10 (potential) branch divergence @  PC=0x1178 (_1.ptx:1086) bra.uni BB6_2;
GPGPU-Sim PTX:    immediate post dominator      @  PC=0xff8 (_1.ptx:1009) setp.le.s32 %p2, %r25, %r26;
GPGPU-Sim PTX: ... end of reconvergence points for _Z12findIndexBinPdiid
GPGPU-Sim PTX: ... done pre-decoding instructions for '_Z12findIndexBinPdiid'.
GPGPU-Sim PTX: allocating stack frame region for .param "func_retval0" from 0x0 to 0x8
GPGPU-Sim PTX: allocating stack frame region for .param "_Z16dev_round_doubled_param_0" from 0x8 to 0x10
GPGPU-Sim PTX: instruction assembly for function '_Z16dev_round_doubled'...   done.
GPGPU-Sim PTX: finding reconvergence points for '_Z16dev_round_doubled'...
GPGPU-Sim PTX: Finding dominators for '_Z16dev_round_doubled'...
GPGPU-Sim PTX: Finding immediate dominators for '_Z16dev_round_doubled'...
GPGPU-Sim PTX: Finding postdominators for '_Z16dev_round_doubled'...
GPGPU-Sim PTX: Finding immediate postdominators for '_Z16dev_round_doubled'...
GPGPU-Sim PTX: pre-decoding instructions for '_Z16dev_round_doubled'...
GPGPU-Sim PTX: reconvergence points for _Z16dev_round_doubled...
GPGPU-Sim PTX: ... end of reconvergence points for _Z16dev_round_doubled
GPGPU-Sim PTX: ... done pre-decoding instructions for '_Z16dev_round_doubled'.
GPGPU-Sim PTX: instruction assembly for function '_Z17find_index_kernelPdS_S_S_S_S_S_i'...   done.
GPGPU-Sim PTX: finding reconvergence points for '_Z17find_index_kernelPdS_S_S_S_S_S_i'...
GPGPU-Sim PTX: Finding dominators for '_Z17find_index_kernelPdS_S_S_S_S_S_i'...
GPGPU-Sim PTX: Finding immediate dominators for '_Z17find_index_kernelPdS_S_S_S_S_S_i'...
GPGPU-Sim PTX: Finding postdominators for '_Z17find_index_kernelPdS_S_S_S_S_S_i'...
GPGPU-Sim PTX: Finding immediate postdominators for '_Z17find_index_kernelPdS_S_S_S_S_S_i'...
GPGPU-Sim PTX: pre-decoding instructions for '_Z17find_index_kernelPdS_S_S_S_S_S_i'...
GPGPU-Sim PTX: reconvergence points for _Z17find_index_kernelPdS_S_S_S_S_S_i...
GPGPU-Sim PTX:  1 (potential) branch divergence @  PC=0x1250 (_1.ptx:1153) @%p1 bra BB8_6;
GPGPU-Sim PTX:    immediate post dominator      @  PC=0x1340 (_1.ptx:1200) bar.sync 0;
GPGPU-Sim PTX:  2 (potential) branch divergence @  PC=0x1288 (_1.ptx:1165) @%p2 bra BB8_4;
GPGPU-Sim PTX:    immediate post dominator      @  PC=0x12d0 (_1.ptx:1181) setp.eq.s32 %p4, %r21, -1;
GPGPU-Sim PTX:  3 (potential) branch divergence @  PC=0x1298 (_1.ptx:1168) bra.uni BB8_5;
GPGPU-Sim PTX:    immediate post dominator      @  PC=0x12d0 (_1.ptx:1181) setp.eq.s32 %p4, %r21, -1;
GPGPU-Sim PTX:  4 (potential) branch divergence @  PC=0x12c8 (_1.ptx:1177) @%p3 bra BB8_7;
GPGPU-Sim PTX:    immediate post dominator      @  PC=0x12d0 (_1.ptx:1181) setp.eq.s32 %p4, %r21, -1;
GPGPU-Sim PTX:  5 (potential) branch divergence @  PC=0x1358 (_1.ptx:1207) bra.uni BB8_2;
GPGPU-Sim PTX:    immediate post dominator      @  PC=0x1278 (_1.ptx:1162) ld.param.u32 %r20, [_Z17find_index_kernelPdS_S_S_S_S_S_i_param_7];
GPGPU-Sim PTX: ... end of reconvergence points for _Z17find_index_kernelPdS_S_S_S_S_S_i
GPGPU-Sim PTX: ... done pre-decoding instructions for '_Z17find_index_kernelPdS_S_S_S_S_S_i'.
GPGPU-Sim PTX: allocating shared region for "__cuda_local_var_19424_36_non_const_u1" from 0x0 to 0x8 (shared memory space)
GPGPU-Sim PTX: allocating shared region for "__cuda_local_var_19424_40_non_const_sumWeights" from 0x8 to 0x10 (shared memory space)
GPGPU-Sim PTX: instruction assembly for function '_Z24normalize_weights_kernelPdiS_S_S_Pi'...   done.
GPGPU-Sim PTX: finding reconvergence points for '_Z24normalize_weights_kernelPdiS_S_S_Pi'...
GPGPU-Sim PTX: Finding dominators for '_Z24normalize_weights_kernelPdiS_S_S_Pi'...
GPGPU-Sim PTX: Finding immediate dominators for '_Z24normalize_weights_kernelPdiS_S_S_Pi'...
GPGPU-Sim PTX: Finding postdominators for '_Z24normalize_weights_kernelPdiS_S_S_Pi'...
GPGPU-Sim PTX: Finding immediate postdominators for '_Z24normalize_weights_kernelPdiS_S_S_Pi'...
GPGPU-Sim PTX: pre-decoding instructions for '_Z24normalize_weights_kernelPdiS_S_S_Pi'...
GPGPU-Sim PTX: reconvergence points for _Z24normalize_weights_kernelPdiS_S_S_Pi...
GPGPU-Sim PTX:  1 (potential) branch divergence @  PC=0x13e0 (_1.ptx:1248) @%p3 bra BB9_2;
GPGPU-Sim PTX:    immediate post dominator      @  PC=0x13f8 (_1.ptx:1256) bar.sync 0;
GPGPU-Sim PTX:  2 (potential) branch divergence @  PC=0x1418 (_1.ptx:1261) @%p4 bra BB9_4;
GPGPU-Sim PTX:    immediate post dominator      @  PC=0x1450 (_1.ptx:1275) bar.sync 0;
GPGPU-Sim PTX:  3 (potential) branch divergence @  PC=0x1460 (_1.ptx:1278) @%p5 bra BB9_9;
GPGPU-Sim PTX:    immediate post dominator      @  PC=0x15a0 (_1.ptx:1341) bar.sync 0;
GPGPU-Sim PTX:  4 (potential) branch divergence @  PC=0x1488 (_1.ptx:1286) @%p6 bra BB9_8;
GPGPU-Sim PTX:    immediate post dominator      @  PC=0x1508 (_1.ptx:1312) ld.param.u32 %r31, [_Z24normalize_weights_kernelPdiS_S_S_Pi_param_1];
GPGPU-Sim PTX:  5 (potential) branch divergence @  PC=0x1500 (_1.ptx:1309) @%p7 bra BB9_7;
GPGPU-Sim PTX:    immediate post dominator      @  PC=0x1508 (_1.ptx:1312) ld.param.u32 %r31, [_Z24normalize_weights_kernelPdiS_S_S_Pi_param_1];
GPGPU-Sim PTX:  6 (potential) branch divergence @  PC=0x15a8 (_1.ptx:1343) @!%p1 bra BB9_11;
GPGPU-Sim PTX:    immediate post dominator      @  PC=0x15c0 (_1.ptx:1351) bar.sync 0;
GPGPU-Sim PTX:  7 (potential) branch divergence @  PC=0x15c8 (_1.ptx:1353) @%p2 bra BB9_13;
GPGPU-Sim PTX:    immediate post dominator      @ 
GPGPU-Sim PTX: ... end of reconvergence points for _Z24normalize_weights_kernelPdiS_S_S_Pi
GPGPU-Sim PTX: ... done pre-decoding instructions for '_Z24normalize_weights_kernelPdiS_S_S_Pi'.
GPGPU-Sim PTX: instruction assembly for function '_Z10sum_kernelPdi'...   done.
GPGPU-Sim PTX: finding reconvergence points for '_Z10sum_kernelPdi'...
GPGPU-Sim PTX: Finding dominators for '_Z10sum_kernelPdi'...
GPGPU-Sim PTX: Finding immediate dominators for '_Z10sum_kernelPdi'...
GPGPU-Sim PTX: Finding postdominators for '_Z10sum_kernelPdi'...
GPGPU-Sim PTX: Finding immediate postdominators for '_Z10sum_kernelPdi'...
GPGPU-Sim PTX: pre-decoding instructions for '_Z10sum_kernelPdi'...
GPGPU-Sim PTX: reconvergence points for _Z10sum_kernelPdi...
GPGPU-Sim PTX:  1 (potential) branch divergence @  PC=0x1668 (_1.ptx:1398) @%p1 bra BB10_2;
GPGPU-Sim PTX:    immediate post dominator      @ 
GPGPU-Sim PTX:  2 (potential) branch divergence @  PC=0x16a8 (_1.ptx:1415) @%p2 bra BB10_4;
GPGPU-Sim PTX:    immediate post dominator      @  PC=0x1718 (_1.ptx:1441) st.global.f64 [%rl1], %fd10;
GPGPU-Sim PTX:  3 (potential) branch divergence @  PC=0x16b8 (_1.ptx:1418) bra.uni BB10_6;
GPGPU-Sim PTX:    immediate post dominator      @  PC=0x1718 (_1.ptx:1441) st.global.f64 [%rl1], %fd10;
GPGPU-Sim PTX:  4 (potential) branch divergence @  PC=0x1710 (_1.ptx:1437) @%p3 bra BB10_5;
GPGPU-Sim PTX:    immediate post dominator      @  PC=0x1718 (_1.ptx:1441) st.global.f64 [%rl1], %fd10;
GPGPU-Sim PTX: ... end of reconvergence points for _Z10sum_kernelPdi
GPGPU-Sim PTX: ... done pre-decoding instructions for '_Z10sum_kernelPdi'.
GPGPU-Sim PTX: allocating stack frame region for .local "__local_depot11" from 0x0 to 0x8
GPGPU-Sim PTX: allocating shared region for "__cuda_local_var_19475_36_non_const_buffer" from 0x0 to 0x1000 (shared memory space)
GPGPU-Sim PTX: allocating stack frame region for .param "param0" from 0x8 to 0x10
GPGPU-Sim PTX: allocating stack frame region for .param "param1" from 0x10 to 0x18
GPGPU-Sim PTX: allocating stack frame region for .param "retval0" from 0x18 to 0x20
GPGPU-Sim PTX: Warning %temp was declared previous at _1.ptx:1698 skipping new declaration
GPGPU-Sim PTX: Warning %temp was declared previous at _1.ptx:1698 skipping new declaration
GPGPU-Sim PTX: Warning %temp was declared previous at _1.ptx:1698 skipping new declaration
GPGPU-Sim PTX: Warning %temp was declared previous at _1.ptx:1698 skipping new declaration
GPGPU-Sim PTX: Warning %temp was declared previous at _1.ptx:1698 skipping new declaration
GPGPU-Sim PTX: Warning temp_param_reg was declared previous at _1.ptx:1606 skipping new declaration
GPGPU-Sim PTX: Warning param0 was declared previous at _1.ptx:1607 skipping new declaration
GPGPU-Sim PTX: Warning param1 was declared previous at _1.ptx:1610 skipping new declaration
GPGPU-Sim PTX: Warning retval0 was declared previous at _1.ptx:1612 skipping new declaration
GPGPU-Sim PTX: Warning %temp was declared previous at _1.ptx:1698 skipping new declaration
GPGPU-Sim PTX: Warning %temp was declared previous at _1.ptx:1698 skipping new declaration
GPGPU-Sim PTX: Warning %temp was declared previous at _1.ptx:1698 skipping new declaration
GPGPU-Sim PTX: Warning %temp was declared previous at _1.ptx:1698 skipping new declaration
GPGPU-Sim PTX: Warning %temp was declared previous at _1.ptx:1698 skipping new declaration
GPGPU-Sim PTX: Warning %temp was declared previous at _1.ptx:1698 skipping new declaration
GPGPU-Sim PTX: Warning %temp was declared previous at _1.ptx:1698 skipping new declaration
GPGPU-Sim PTX: instruction assembly for function '_Z17likelihood_kernelPdS_S_S_S_PiS0_S_PhS_S_iiiiiiS0_S_'...   done.
GPGPU-Sim PTX: finding reconvergence points for '_Z17likelihood_kernelPdS_S_S_S_PiS0_S_PhS_S_iiiiiiS0_S_'...
GPGPU-Sim PTX: Finding dominators for '_Z17likelihood_kernelPdS_S_S_S_PiS0_S_PhS_S_iiiiiiS0_S_'...
GPGPU-Sim PTX: Finding immediate dominators for '_Z17likelihood_kernelPdS_S_S_S_PiS0_S_PhS_S_iiiiiiS0_S_'...
GPGPU-Sim PTX: Finding postdominators for '_Z17likelihood_kernelPdS_S_S_S_PiS0_S_PhS_S_iiiiiiS0_S_'...
GPGPU-Sim PTX: Finding immediate postdominators for '_Z17likelihood_kernelPdS_S_S_S_PiS0_S_PhS_S_iiiiiiS0_S_'...
GPGPU-Sim PTX: pre-decoding instructions for '_Z17likelihood_kernelPdS_S_S_S_PiS0_S_PhS_S_iiiiiiS0_S_'...
GPGPU-Sim PTX: reconvergence points for _Z17likelihood_kernelPdS_S_S_S_PiS0_S_PhS_S_iiiiiiS0_S_...
GPGPU-Sim PTX:  1 (potential) branch divergence @  PC=0x17e0 (_1.ptx:1508) @%p4 bra BB11_44;
GPGPU-Sim PTX:    immediate post dominator      @  PC=0x2420 (_1.ptx:2261) bar.sync 0;
GPGPU-Sim PTX:  2 (potential) branch divergence @  PC=0x1950 (_1.ptx:1574) @%p5 bra BB11_8;
GPGPU-Sim PTX:    immediate post dominator      @  PC=0x1b48 (_1.ptx:1699) mov.b64 {%temp, %r232}, %fd318;
GPGPU-Sim PTX:  3 (potential) branch divergence @  PC=0x19b8 (_1.ptx:1597) @%p6 bra BB11_3;
GPGPU-Sim PTX:    immediate post dominator      @  PC=0x1a00 (_1.ptx:1626) add.s32 %r11, %r231, 1;
GPGPU-Sim PTX:  4 (potential) branch divergence @  PC=0x19c0 (_1.ptx:1598) bra.uni BB11_4;
GPGPU-Sim PTX:    immediate post dominator      @  PC=0x1a00 (_1.ptx:1626) add.s32 %r11, %r231, 1;
GPGPU-Sim PTX:  5 (potential) branch divergence @  PC=0x1a20 (_1.ptx:1633) @%p7 bra BB11_6;
GPGPU-Sim PTX:    immediate post dominator      @  PC=0x1b10 (_1.ptx:1683) and.b32 %r85, %r11, 2;
GPGPU-Sim PTX:  6 (potential) branch divergence @  PC=0x1aa0 (_1.ptx:1657) bra.uni BB11_7;
GPGPU-Sim PTX:    immediate post dominator      @  PC=0x1b10 (_1.ptx:1683) and.b32 %r85, %r11, 2;
GPGPU-Sim PTX:  7 (potential) branch divergence @  PC=0x1b30 (_1.ptx:1688) bra.uni BB11_9;
GPGPU-Sim PTX:    immediate post dominator      @  PC=0x1b48 (_1.ptx:1699) mov.b64 {%temp, %r232}, %fd318;
GPGPU-Sim PTX:  8 (potential) branch divergence @  PC=0x1b70 (_1.ptx:1711) @%p11 bra BB11_16;
GPGPU-Sim PTX:    immediate post dominator      @  PC=0x1e00 (_1.ptx:1881) mul.f64 %fd162, %fd318, 0dC000000000000000;
GPGPU-Sim PTX:  9 (potential) branch divergence @  PC=0x1b88 (_1.ptx:1717) @%p12 bra BB11_15;
GPGPU-Sim PTX:    immediate post dominator      @  PC=0x1e00 (_1.ptx:1881) mul.f64 %fd162, %fd318, 0dC000000000000000;
GPGPU-Sim PTX: 10 (potential) branch divergence @  PC=0x1b98 (_1.ptx:1721) @%p13 bra BB11_14;
GPGPU-Sim PTX:    immediate post dominator      @  PC=0x1e00 (_1.ptx:1881) mul.f64 %fd162, %fd318, 0dC000000000000000;
GPGPU-Sim PTX: 11 (potential) branch divergence @  PC=0x1ba8 (_1.ptx:1725) @%p14 bra BB11_22;
GPGPU-Sim PTX:    immediate post dominator      @  PC=0x1e00 (_1.ptx:1881) mul.f64 %fd162, %fd318, 0dC000000000000000;
GPGPU-Sim PTX: 12 (potential) branch divergence @  PC=0x1bc0 (_1.ptx:1730) bra.uni BB11_22;
GPGPU-Sim PTX:    immediate post dominator      @  PC=0x1e00 (_1.ptx:1881) mul.f64 %fd162, %fd318, 0dC000000000000000;
GPGPU-Sim PTX: 13 (potential) branch divergence @  PC=0x1bd0 (_1.ptx:1735) bra.uni BB11_22;
GPGPU-Sim PTX:    immediate post dominator      @  PC=0x1e00 (_1.ptx:1881) mul.f64 %fd162, %fd318, 0dC000000000000000;
GPGPU-Sim PTX: 14 (potential) branch divergence @  PC=0x1be0 (_1.ptx:1740) bra.uni BB11_22;
GPGPU-Sim PTX:    immediate post dominator      @  PC=0x1e00 (_1.ptx:1881) mul.f64 %fd162, %fd318, 0dC000000000000000;
GPGPU-Sim PTX: 15 (potential) branch divergence @  PC=0x1bf0 (_1.ptx:1745) @%p15 bra BB11_18;
GPGPU-Sim PTX:    immediate post dominator      @  PC=0x1c28 (_1.ptx:1767) shr.s32 %r88, %r232, 20;
GPGPU-Sim PTX: 16 (potential) branch divergence @  PC=0x1c00 (_1.ptx:1748) bra.uni BB11_19;
GPGPU-Sim PTX:    immediate post dominator      @  PC=0x1c28 (_1.ptx:1767) shr.s32 %r88, %r232, 20;
GPGPU-Sim PTX: 17 (potential) branch divergence @  PC=0x1c58 (_1.ptx:1776) @%p16 bra BB11_20;
GPGPU-Sim PTX:    immediate post dominator      @  PC=0x1c90 (_1.ptx:1798) add.f64 %fd120, %fd317, 0d3FF0000000000000;
GPGPU-Sim PTX: 18 (potential) branch divergence @  PC=0x1c60 (_1.ptx:1777) bra.uni BB11_21;
GPGPU-Sim PTX:    immediate post dominator      @  PC=0x1c90 (_1.ptx:1798) add.f64 %fd120, %fd317, 0d3FF0000000000000;
GPGPU-Sim PTX: 19 (potential) branch divergence @  PC=0x1f40 (_1.ptx:1942) @%p17 bra BB11_29;
GPGPU-Sim PTX:    immediate post dominator      @  PC=0x2138 (_1.ptx:2067) mov.b64 {%temp, %r237}, %fd323;
GPGPU-Sim PTX: 20 (potential) branch divergence @  PC=0x1fa8 (_1.ptx:1965) @%p18 bra BB11_24;
GPGPU-Sim PTX:    immediate post dominator      @  PC=0x1ff0 (_1.ptx:1994) add.s32 %r25, %r236, 1;
GPGPU-Sim PTX: 21 (potential) branch divergence @  PC=0x1fb0 (_1.ptx:1966) bra.uni BB11_25;
GPGPU-Sim PTX:    immediate post dominator      @  PC=0x1ff0 (_1.ptx:1994) add.s32 %r25, %r236, 1;
GPGPU-Sim PTX: 22 (potential) branch divergence @  PC=0x2010 (_1.ptx:2001) @%p19 bra BB11_27;
GPGPU-Sim PTX:    immediate post dominator      @  PC=0x2100 (_1.ptx:2051) and.b32 %r119, %r25, 2;
GPGPU-Sim PTX: 23 (potential) branch divergence @  PC=0x2090 (_1.ptx:2025) bra.uni BB11_28;
GPGPU-Sim PTX:    immediate post dominator      @  PC=0x2100 (_1.ptx:2051) and.b32 %r119, %r25, 2;
GPGPU-Sim PTX: 24 (potential) branch divergence @  PC=0x2120 (_1.ptx:2056) bra.uni BB11_30;
GPGPU-Sim PTX:    immediate post dominator      @  PC=0x2138 (_1.ptx:2067) mov.b64 {%temp, %r237}, %fd323;
GPGPU-Sim PTX: 25 (potential) branch divergence @  PC=0x2160 (_1.ptx:2079) @%p23 bra BB11_37;
GPGPU-Sim PTX:    immediate post dominator      @  PC=0x23f0 (_1.ptx:2249) mul.f64 %fd251, %fd323, 0dC000000000000000;
GPGPU-Sim PTX: 26 (potential) branch divergence @  PC=0x2178 (_1.ptx:2085) @%p24 bra BB11_36;
GPGPU-Sim PTX:    immediate post dominator      @  PC=0x23f0 (_1.ptx:2249) mul.f64 %fd251, %fd323, 0dC000000000000000;
GPGPU-Sim PTX: 27 (potential) branch divergence @  PC=0x2188 (_1.ptx:2089) @%p25 bra BB11_35;
GPGPU-Sim PTX:    immediate post dominator      @  PC=0x23f0 (_1.ptx:2249) mul.f64 %fd251, %fd323, 0dC000000000000000;
GPGPU-Sim PTX: 28 (potential) branch divergence @  PC=0x2198 (_1.ptx:2093) @%p26 bra BB11_43;
GPGPU-Sim PTX:    immediate post dominator      @  PC=0x23f0 (_1.ptx:2249) mul.f64 %fd251, %fd323, 0dC000000000000000;
GPGPU-Sim PTX: 29 (potential) branch divergence @  PC=0x21b0 (_1.ptx:2098) bra.uni BB11_43;
GPGPU-Sim PTX:    immediate post dominator      @  PC=0x23f0 (_1.ptx:2249) mul.f64 %fd251, %fd323, 0dC000000000000000;
GPGPU-Sim PTX: 30 (potential) branch divergence @  PC=0x21c0 (_1.ptx:2103) bra.uni BB11_43;
GPGPU-Sim PTX:    immediate post dominator      @  PC=0x23f0 (_1.ptx:2249) mul.f64 %fd251, %fd323, 0dC000000000000000;
GPGPU-Sim PTX: 31 (potential) branch divergence @  PC=0x21d0 (_1.ptx:2108) bra.uni BB11_43;
GPGPU-Sim PTX:    immediate post dominator      @  PC=0x23f0 (_1.ptx:2249) mul.f64 %fd251, %fd323, 0dC000000000000000;
GPGPU-Sim PTX: 32 (potential) branch divergence @  PC=0x21e0 (_1.ptx:2113) @%p27 bra BB11_39;
GPGPU-Sim PTX:    immediate post dominator      @  PC=0x2218 (_1.ptx:2135) shr.s32 %r122, %r237, 20;
GPGPU-Sim PTX: 33 (potential) branch divergence @  PC=0x21f0 (_1.ptx:2116) bra.uni BB11_40;
GPGPU-Sim PTX:    immediate post dominator      @  PC=0x2218 (_1.ptx:2135) shr.s32 %r122, %r237, 20;
GPGPU-Sim PTX: 34 (potential) branch divergence @  PC=0x2248 (_1.ptx:2144) @%p28 bra BB11_41;
GPGPU-Sim PTX:    immediate post dominator      @  PC=0x2280 (_1.ptx:2166) add.f64 %fd209, %fd322, 0d3FF0000000000000;
GPGPU-Sim PTX: 35 (potential) branch divergence @  PC=0x2250 (_1.ptx:2145) bra.uni BB11_42;
GPGPU-Sim PTX:    immediate post dominator      @  PC=0x2280 (_1.ptx:2166) add.f64 %fd209, %fd322, 0d3FF0000000000000;
GPGPU-Sim PTX: 36 (potential) branch divergence @  PC=0x2438 (_1.ptx:2265) @%p29 bra BB11_64;
GPGPU-Sim PTX:    immediate post dominator      @  PC=0x2a60 (_1.ptx:2584) mov.u32 %r230, %tid.x;
GPGPU-Sim PTX: 37 (potential) branch divergence @  PC=0x2458 (_1.ptx:2271) @%p30 bra BB11_48;
GPGPU-Sim PTX:    immediate post dominator      @  PC=0x25d8 (_1.ptx:2339) @%p1 bra BB11_50;
GPGPU-Sim PTX: 38 (potential) branch divergence @  PC=0x25d0 (_1.ptx:2335) @%p32 bra BB11_47;
GPGPU-Sim PTX:    immediate post dominator      @  PC=0x25d8 (_1.ptx:2339) @%p1 bra BB11_50;
GPGPU-Sim PTX: 39 (potential) branch divergence @  PC=0x25d8 (_1.ptx:2339) @%p1 bra BB11_50;
GPGPU-Sim PTX:    immediate post dominator      @  PC=0x27d0 (_1.ptx:2446) ld.param.u64 %rl92, [_Z17likelihood_kernelPdS_S_S_S_PiS0_S_PhS_S_iiiiiiS0_S__param_7];
GPGPU-Sim PTX: 40 (potential) branch divergence @  PC=0x25e8 (_1.ptx:2342) bra.uni BB11_58;
GPGPU-Sim PTX:    immediate post dominator      @  PC=0x27d0 (_1.ptx:2446) ld.param.u64 %rl92, [_Z17likelihood_kernelPdS_S_S_S_PiS0_S_PhS_S_iiiiiiS0_S__param_7];
GPGPU-Sim PTX: 41 (potential) branch divergence @  PC=0x26c0 (_1.ptx:2382) @%p3 bra BB11_54;
GPGPU-Sim PTX:    immediate post dominator      @  PC=0x2710 (_1.ptx:2402) add.s32 %r173, %r43, -228;
GPGPU-Sim PTX: 42 (potential) branch divergence @  PC=0x2708 (_1.ptx:2399) @%p34 bra BB11_53;
GPGPU-Sim PTX:    immediate post dominator      @  PC=0x2710 (_1.ptx:2402) add.s32 %r173, %r43, -228;
GPGPU-Sim PTX: 43 (potential) branch divergence @  PC=0x2730 (_1.ptx:2409) @%p3 bra BB11_57;
GPGPU-Sim PTX:    immediate post dominator      @  PC=0x2790 (_1.ptx:2432) sub.f64 %fd270, %fd325, %fd327;
GPGPU-Sim PTX: 44 (potential) branch divergence @  PC=0x2788 (_1.ptx:2428) @%p36 bra BB11_56;
GPGPU-Sim PTX:    immediate post dominator      @  PC=0x2790 (_1.ptx:2432) sub.f64 %fd270, %fd325, %fd327;
GPGPU-Sim PTX: 45 (potential) branch divergence @  PC=0x27c8 (_1.ptx:2443) @%p37 bra BB11_51;
GPGPU-Sim PTX:    immediate post dominator      @  PC=0x27d0 (_1.ptx:2446) ld.param.u64 %rl92, [_Z17likelihood_kernelPdS_S_S_S_PiS0_S_PhS_S_iiiiiiS0_S__param_7];
GPGPU-Sim PTX: 46 (potential) branch divergence @  PC=0x2850 (_1.ptx:2474) @%p40 bra BB11_60;
GPGPU-Sim PTX:    immediate post dominator      @  PC=0x2a30 (_1.ptx:2573) ld.param.u64 %rl95, [_Z17likelihood_kernelPdS_S_S_S_PiS0_S_PhS_S_iiiiiiS0_S__param_10];
GPGPU-Sim PTX: 47 (potential) branch divergence @  PC=0x2898 (_1.ptx:2488) bra.uni BB11_63;
GPGPU-Sim PTX:    immediate post dominator      @  PC=0x2a30 (_1.ptx:2573) ld.param.u64 %rl95, [_Z17likelihood_kernelPdS_S_S_S_PiS0_S_PhS_S_iiiiiiS0_S__param_10];
GPGPU-Sim PTX: 48 (potential) branch divergence @  PC=0x29a8 (_1.ptx:2543) @%p43 bra BB11_62;
GPGPU-Sim PTX:    immediate post dominator      @  PC=0x2a30 (_1.ptx:2573) ld.param.u64 %rl95, [_Z17likelihood_kernelPdS_S_S_S_PiS0_S_PhS_S_iiiiiiS0_S__param_10];
GPGPU-Sim PTX: 49 (potential) branch divergence @  PC=0x2a10 (_1.ptx:2563) bra.uni BB11_63;
GPGPU-Sim PTX:    immediate post dominator      @  PC=0x2a30 (_1.ptx:2573) ld.param.u64 %rl95, [_Z17likelihood_kernelPdS_S_S_S_PiS0_S_PhS_S_iiiiiiS0_S__param_10];
GPGPU-Sim PTX: 50 (potential) branch divergence @  PC=0x2aa8 (_1.ptx:2596) @%p45 bra BB11_66;
GPGPU-Sim PTX:    immediate post dominator      @  PC=0x2ae0 (_1.ptx:2608) bar.sync 0;
GPGPU-Sim PTX: 51 (potential) branch divergence @  PC=0x2b00 (_1.ptx:2614) @%p46 bra BB11_70;
GPGPU-Sim PTX:    immediate post dominator      @  PC=0x2b70 (_1.ptx:2641) mov.u32 %r229, %tid.x;
GPGPU-Sim PTX: 52 (potential) branch divergence @  PC=0x2b10 (_1.ptx:2619) @%p47 bra BB11_69;
GPGPU-Sim PTX:    immediate post dominator      @  PC=0x2b50 (_1.ptx:2633) bar.sync 0;
GPGPU-Sim PTX: 53 (potential) branch divergence @  PC=0x2b68 (_1.ptx:2637) @%p48 bra BB11_67;
GPGPU-Sim PTX:    immediate post dominator      @  PC=0x2b70 (_1.ptx:2641) mov.u32 %r229, %tid.x;
GPGPU-Sim PTX: 54 (potential) branch divergence @  PC=0x2b80 (_1.ptx:2644) @%p49 bra BB11_72;
GPGPU-Sim PTX:    immediate post dominator      @  PC=0x2bc0 (_1.ptx:2658) bar.sync 0;
GPGPU-Sim PTX: ... end of reconvergence points for _Z17likelihood_kernelPdS_S_S_S_PiS0_S_PhS_S_iiiiiiS0_S_
GPGPU-Sim PTX: ... done pre-decoding instructions for '_Z17likelihood_kernelPdS_S_S_S_PiS0_S_PhS_S_iiiiiiS0_S_'.
GPGPU-Sim PTX: finished parsing EMBEDDED .ptx file _1.ptx
Adding _cuobjdump_3.ptx with cubin handle 1
GPGPU-Sim PTX: extracting embedded .ptx to temporary file "_ptx_myQBpW"
Running: cat _ptx_myQBpW | sed 's/.version 1.5/.version 1.4/' | sed 's/, texmode_independent//' | sed 's/\(\.extern \.const\[1\] .b8 \w\+\)\[\]/\1\[1\]/' | sed 's/const\[.\]/const\[0\]/g' > _ptx2_p30N1t
GPGPU-Sim PTX: generating ptxinfo using "$CUDA_INSTALL_PATH/bin/ptxas --gpu-name=sm_20 -v _ptx2_p30N1t --output-file  /dev/null 2> _ptx_myQBpWinfo"
GPGPU-Sim PTX: Kernel '_Z10sum_kernelPdi' : regs=18, lmem=0, smem=0, cmem=204
GPGPU-Sim PTX: Kernel '_Z17find_index_kernelPdS_S_S_S_S_S_i' : regs=13, lmem=0, smem=0, cmem=236
GPGPU-Sim PTX: Kernel '_Z17likelihood_kernelPdS_S_S_S_PiS0_S_PhS_S_iiiiiiS0_S_' : regs=38, lmem=0, smem=4096, cmem=392
GPGPU-Sim PTX: Kernel '_Z24normalize_weights_kernelPdiS_S_S_Pi' : regs=25, lmem=0, smem=16, cmem=264
GPGPU-Sim PTX: removing ptxinfo using "rm -f _ptx_myQBpW _ptx2_p30N1t _ptx_myQBpWinfo"
GPGPU-Sim PTX: loading globals with explicit initializers... 
GPGPU-Sim PTX: finished loading globals (0 bytes total).
GPGPU-Sim PTX: loading constants with explicit initializers...  done.
GPGPU-Sim PTX: __cudaRegisterFunction _Z10sum_kernelPdi : hostFun 0x0x401180, fat_cubin_handle = 1
GPGPU-Sim PTX: __cudaRegisterFunction _Z24normalize_weights_kernelPdiS_S_S_Pi : hostFun 0x0x402470, fat_cubin_handle = 1
GPGPU-Sim PTX: __cudaRegisterFunction _Z17find_index_kernelPdS_S_S_S_S_S_i : hostFun 0x0x402380, fat_cubin_handle = 1
VIDEO SEQUENCE TOOK 0.052311
TIME TO SEND TO GPU: 0.036836

GPGPU-Sim PTX: cudaLaunch for 0x0x402740 (mode=performance simulation) on stream 0
GPGPU-Sim PTX: pushing kernel '_Z17likelihood_kernelPdS_S_S_S_PiS0_S_PhS_S_iiiiiiS0_S_' to stream 0, gridDim= (2,1,1) blockDim = (512,1,1) 
kernel '_Z17likelihood_kernelPdS_S_S_S_PiS0_S_PhS_S_iiiiiiS0_S_' transfer to GPU hardware scheduler
GPGPU-Sim uArch: Shader 1 bind to kernel 1 '_Z17likelihood_kernelPdS_S_S_S_PiS0_S_PhS_S_iiiiiiS0_S_'
GPGPU-Sim uArch: CTA/core = 1, limited by: regs
GPGPU-Sim uArch: core:  1, cta: 0 initialized @(1,0)
GPGPU-Sim uArch: Shader 2 bind to kernel 1 '_Z17likelihood_kernelPdS_S_S_S_PiS0_S_PhS_S_iiiiiiS0_S_'
GPGPU-Sim uArch: core:  2, cta: 0 initialized @(1,0)
GPGPU-Sim uArch: cycles simulated: 500  inst.: 1024 (ipc= 2.0) sim_rate=512 (inst/sec) elapsed = 0:0:00:02 / Tue Jan 29 18:29:39 2019
GPGPU-Sim uArch: cycles simulated: 2500  inst.: 37136 (ipc=14.9) sim_rate=12378 (inst/sec) elapsed = 0:0:00:03 / Tue Jan 29 18:29:40 2019
GPGPU-Sim uArch: cycles simulated: 5000  inst.: 56864 (ipc=11.4) sim_rate=14216 (inst/sec) elapsed = 0:0:00:04 / Tue Jan 29 18:29:41 2019
GPGPU-Sim PTX: 100000 instructions simulated : ctaid=(1,0,0) tid=(248,0,0)
GPGPU-Sim uArch: cycles simulated: 7500  inst.: 115388 (ipc=15.4) sim_rate=23077 (inst/sec) elapsed = 0:0:00:05 / Tue Jan 29 18:29:42 2019
GPGPU-Sim uArch: cycles simulated: 9500  inst.: 143204 (ipc=15.1) sim_rate=23867 (inst/sec) elapsed = 0:0:00:06 / Tue Jan 29 18:29:43 2019
GPGPU-Sim uArch: cycles simulated: 12000  inst.: 181959 (ipc=15.2) sim_rate=25994 (inst/sec) elapsed = 0:0:00:07 / Tue Jan 29 18:29:44 2019
GPGPU-Sim PTX: 200000 instructions simulated : ctaid=(1,0,0) tid=(364,0,0)
GPGPU-Sim uArch: cycles simulated: 14000  inst.: 234586 (ipc=16.8) sim_rate=29323 (inst/sec) elapsed = 0:0:00:08 / Tue Jan 29 18:29:45 2019
GPGPU-Sim uArch: cycles simulated: 16000  inst.: 264154 (ipc=16.5) sim_rate=29350 (inst/sec) elapsed = 0:0:00:09 / Tue Jan 29 18:29:46 2019
GPGPU-Sim PTX: 300000 instructions simulated : ctaid=(1,0,0) tid=(264,0,0)
GPGPU-Sim uArch: cycles simulated: 18000  inst.: 309858 (ipc=17.2) sim_rate=30985 (inst/sec) elapsed = 0:0:00:10 / Tue Jan 29 18:29:47 2019
GPGPU-Sim uArch: cycles simulated: 20000  inst.: 354618 (ipc=17.7) sim_rate=32238 (inst/sec) elapsed = 0:0:00:11 / Tue Jan 29 18:29:48 2019
GPGPU-Sim PTX: 400000 instructions simulated : ctaid=(1,0,0) tid=(176,0,0)
GPGPU-Sim uArch: cycles simulated: 22000  inst.: 396010 (ipc=18.0) sim_rate=33000 (inst/sec) elapsed = 0:0:00:12 / Tue Jan 29 18:29:49 2019
GPGPU-Sim uArch: cycles simulated: 24000  inst.: 441034 (ipc=18.4) sim_rate=33925 (inst/sec) elapsed = 0:0:00:13 / Tue Jan 29 18:29:50 2019
GPGPU-Sim uArch: cycles simulated: 26000  inst.: 484698 (ipc=18.6) sim_rate=34621 (inst/sec) elapsed = 0:0:00:14 / Tue Jan 29 18:29:51 2019
GPGPU-Sim PTX: 500000 instructions simulated : ctaid=(0,0,0) tid=(448,0,0)
GPGPU-Sim uArch: cycles simulated: 27500  inst.: 514226 (ipc=18.7) sim_rate=34281 (inst/sec) elapsed = 0:0:00:15 / Tue Jan 29 18:29:52 2019
GPGPU-Sim uArch: cycles simulated: 29500  inst.: 562018 (ipc=19.1) sim_rate=35126 (inst/sec) elapsed = 0:0:00:16 / Tue Jan 29 18:29:53 2019
GPGPU-Sim PTX: 600000 instructions simulated : ctaid=(0,0,0) tid=(304,0,0)
GPGPU-Sim uArch: cycles simulated: 31500  inst.: 601866 (ipc=19.1) sim_rate=35403 (inst/sec) elapsed = 0:0:00:17 / Tue Jan 29 18:29:54 2019
GPGPU-Sim uArch: cycles simulated: 33500  inst.: 649386 (ipc=19.4) sim_rate=36077 (inst/sec) elapsed = 0:0:00:18 / Tue Jan 29 18:29:55 2019
GPGPU-Sim PTX: 700000 instructions simulated : ctaid=(0,0,0) tid=(136,0,0)
GPGPU-Sim uArch: cycles simulated: 35500  inst.: 691418 (ipc=19.5) sim_rate=36390 (inst/sec) elapsed = 0:0:00:19 / Tue Jan 29 18:29:56 2019
GPGPU-Sim uArch: cycles simulated: 37000  inst.: 723138 (ipc=19.5) sim_rate=36156 (inst/sec) elapsed = 0:0:00:20 / Tue Jan 29 18:29:57 2019
GPGPU-Sim uArch: cycles simulated: 39000  inst.: 766754 (ipc=19.7) sim_rate=36512 (inst/sec) elapsed = 0:0:00:21 / Tue Jan 29 18:29:58 2019
GPGPU-Sim PTX: 800000 instructions simulated : ctaid=(0,0,0) tid=(232,0,0)
GPGPU-Sim uArch: cycles simulated: 41000  inst.: 811490 (ipc=19.8) sim_rate=36885 (inst/sec) elapsed = 0:0:00:22 / Tue Jan 29 18:29:59 2019
GPGPU-Sim uArch: cycles simulated: 43000  inst.: 854298 (ipc=19.9) sim_rate=37143 (inst/sec) elapsed = 0:0:00:23 / Tue Jan 29 18:30:00 2019
GPGPU-Sim uArch: cycles simulated: 44500  inst.: 887690 (ipc=19.9) sim_rate=36987 (inst/sec) elapsed = 0:0:00:24 / Tue Jan 29 18:30:01 2019
GPGPU-Sim PTX: 900000 instructions simulated : ctaid=(1,0,0) tid=(144,0,0)
GPGPU-Sim uArch: cycles simulated: 46500  inst.: 929218 (ipc=20.0) sim_rate=37168 (inst/sec) elapsed = 0:0:00:25 / Tue Jan 29 18:30:02 2019
GPGPU-Sim uArch: cycles simulated: 48500  inst.: 969586 (ipc=20.0) sim_rate=37291 (inst/sec) elapsed = 0:0:00:26 / Tue Jan 29 18:30:03 2019
GPGPU-Sim PTX: 1000000 instructions simulated : ctaid=(1,0,0) tid=(464,0,0)
GPGPU-Sim uArch: cycles simulated: 50500  inst.: 1015650 (ipc=20.1) sim_rate=37616 (inst/sec) elapsed = 0:0:00:27 / Tue Jan 29 18:30:04 2019
GPGPU-Sim uArch: cycles simulated: 52500  inst.: 1060090 (ipc=20.2) sim_rate=37860 (inst/sec) elapsed = 0:0:00:28 / Tue Jan 29 18:30:05 2019
GPGPU-Sim PTX: 1100000 instructions simulated : ctaid=(1,0,0) tid=(160,0,0)
GPGPU-Sim uArch: cycles simulated: 54500  inst.: 1102450 (ipc=20.2) sim_rate=38015 (inst/sec) elapsed = 0:0:00:29 / Tue Jan 29 18:30:06 2019
GPGPU-Sim uArch: cycles simulated: 57000  inst.: 1155538 (ipc=20.3) sim_rate=38517 (inst/sec) elapsed = 0:0:00:30 / Tue Jan 29 18:30:07 2019
GPGPU-Sim PTX: 1200000 instructions simulated : ctaid=(0,0,0) tid=(336,0,0)
GPGPU-Sim uArch: cycles simulated: 59000  inst.: 1199466 (ipc=20.3) sim_rate=38692 (inst/sec) elapsed = 0:0:00:31 / Tue Jan 29 18:30:08 2019
GPGPU-Sim uArch: cycles simulated: 61000  inst.: 1244146 (ipc=20.4) sim_rate=38879 (inst/sec) elapsed = 0:0:00:32 / Tue Jan 29 18:30:09 2019
GPGPU-Sim PTX: 1300000 instructions simulated : ctaid=(1,0,0) tid=(240,0,0)
GPGPU-Sim uArch: cycles simulated: 63000  inst.: 1289866 (ipc=20.5) sim_rate=39086 (inst/sec) elapsed = 0:0:00:33 / Tue Jan 29 18:30:10 2019
GPGPU-Sim uArch: cycles simulated: 65000  inst.: 1331202 (ipc=20.5) sim_rate=39153 (inst/sec) elapsed = 0:0:00:34 / Tue Jan 29 18:30:11 2019
GPGPU-Sim uArch: cycles simulated: 66500  inst.: 1363322 (ipc=20.5) sim_rate=38952 (inst/sec) elapsed = 0:0:00:35 / Tue Jan 29 18:30:12 2019
GPGPU-Sim PTX: 1400000 instructions simulated : ctaid=(1,0,0) tid=(48,0,0)
GPGPU-Sim uArch: cycles simulated: 68500  inst.: 1408162 (ipc=20.6) sim_rate=39115 (inst/sec) elapsed = 0:0:00:36 / Tue Jan 29 18:30:13 2019
GPGPU-Sim uArch: cycles simulated: 70500  inst.: 1449194 (ipc=20.6) sim_rate=39167 (inst/sec) elapsed = 0:0:00:37 / Tue Jan 29 18:30:14 2019
GPGPU-Sim PTX: 1500000 instructions simulated : ctaid=(0,0,0) tid=(456,0,0)
GPGPU-Sim uArch: cycles simulated: 72500  inst.: 1495314 (ipc=20.6) sim_rate=39350 (inst/sec) elapsed = 0:0:00:38 / Tue Jan 29 18:30:15 2019
GPGPU-Sim uArch: cycles simulated: 74500  inst.: 1536698 (ipc=20.6) sim_rate=39402 (inst/sec) elapsed = 0:0:00:39 / Tue Jan 29 18:30:16 2019
GPGPU-Sim uArch: cycles simulated: 76500  inst.: 1580090 (ipc=20.7) sim_rate=39502 (inst/sec) elapsed = 0:0:00:40 / Tue Jan 29 18:30:17 2019
GPGPU-Sim PTX: 1600000 instructions simulated : ctaid=(1,0,0) tid=(96,0,0)
GPGPU-Sim uArch: cycles simulated: 78500  inst.: 1626066 (ipc=20.7) sim_rate=39660 (inst/sec) elapsed = 0:0:00:41 / Tue Jan 29 18:30:18 2019
GPGPU-Sim uArch: cycles simulated: 80500  inst.: 1667386 (ipc=20.7) sim_rate=39699 (inst/sec) elapsed = 0:0:00:42 / Tue Jan 29 18:30:19 2019
GPGPU-Sim uArch: cycles simulated: 81000  inst.: 1678554 (ipc=20.7) sim_rate=39036 (inst/sec) elapsed = 0:0:00:43 / Tue Jan 29 18:30:20 2019
GPGPU-Sim uArch: cycles simulated: 81500  inst.: 1687794 (ipc=20.7) sim_rate=38358 (inst/sec) elapsed = 0:0:00:44 / Tue Jan 29 18:30:21 2019
GPGPU-Sim PTX: 1700000 instructions simulated : ctaid=(1,0,0) tid=(152,0,0)
GPGPU-Sim uArch: cycles simulated: 82000  inst.: 1698434 (ipc=20.7) sim_rate=37742 (inst/sec) elapsed = 0:0:00:45 / Tue Jan 29 18:30:22 2019
GPGPU-Sim uArch: cycles simulated: 82500  inst.: 1708098 (ipc=20.7) sim_rate=37132 (inst/sec) elapsed = 0:0:00:46 / Tue Jan 29 18:30:23 2019
GPGPU-Sim uArch: cycles simulated: 83000  inst.: 1719322 (ipc=20.7) sim_rate=36581 (inst/sec) elapsed = 0:0:00:47 / Tue Jan 29 18:30:24 2019
GPGPU-Sim uArch: cycles simulated: 83500  inst.: 1729818 (ipc=20.7) sim_rate=36037 (inst/sec) elapsed = 0:0:00:48 / Tue Jan 29 18:30:25 2019
GPGPU-Sim uArch: cycles simulated: 84000  inst.: 1741730 (ipc=20.7) sim_rate=35545 (inst/sec) elapsed = 0:0:00:49 / Tue Jan 29 18:30:26 2019
GPGPU-Sim uArch: cycles simulated: 84500  inst.: 1748130 (ipc=20.7) sim_rate=34962 (inst/sec) elapsed = 0:0:00:50 / Tue Jan 29 18:30:27 2019
GPGPU-Sim uArch: cycles simulated: 85000  inst.: 1759322 (ipc=20.7) sim_rate=34496 (inst/sec) elapsed = 0:0:00:51 / Tue Jan 29 18:30:28 2019
GPGPU-Sim uArch: cycles simulated: 85500  inst.: 1772810 (ipc=20.7) sim_rate=33449 (inst/sec) elapsed = 0:0:00:53 / Tue Jan 29 18:30:30 2019
GPGPU-Sim uArch: cycles simulated: 86000  inst.: 1780666 (ipc=20.7) sim_rate=32975 (inst/sec) elapsed = 0:0:00:54 / Tue Jan 29 18:30:31 2019
GPGPU-Sim PTX: 1800000 instructions simulated : ctaid=(1,0,0) tid=(16,0,0)
GPGPU-Sim uArch: cycles simulated: 86500  inst.: 1791882 (ipc=20.7) sim_rate=32579 (inst/sec) elapsed = 0:0:00:55 / Tue Jan 29 18:30:32 2019
GPGPU-Sim uArch: cycles simulated: 87000  inst.: 1802242 (ipc=20.7) sim_rate=32182 (inst/sec) elapsed = 0:0:00:56 / Tue Jan 29 18:30:33 2019
GPGPU-Sim uArch: cycles simulated: 87500  inst.: 1811826 (ipc=20.7) sim_rate=31786 (inst/sec) elapsed = 0:0:00:57 / Tue Jan 29 18:30:34 2019
GPGPU-Sim uArch: cycles simulated: 88000  inst.: 1823754 (ipc=20.7) sim_rate=31444 (inst/sec) elapsed = 0:0:00:58 / Tue Jan 29 18:30:35 2019
GPGPU-Sim uArch: cycles simulated: 88500  inst.: 1836010 (ipc=20.7) sim_rate=31118 (inst/sec) elapsed = 0:0:00:59 / Tue Jan 29 18:30:36 2019
GPGPU-Sim uArch: cycles simulated: 89000  inst.: 1845170 (ipc=20.7) sim_rate=30752 (inst/sec) elapsed = 0:0:01:00 / Tue Jan 29 18:30:37 2019
GPGPU-Sim uArch: cycles simulated: 89500  inst.: 1857170 (ipc=20.8) sim_rate=29954 (inst/sec) elapsed = 0:0:01:02 / Tue Jan 29 18:30:39 2019
GPGPU-Sim uArch: cycles simulated: 90000  inst.: 1867458 (ipc=20.7) sim_rate=29642 (inst/sec) elapsed = 0:0:01:03 / Tue Jan 29 18:30:40 2019
GPGPU-Sim uArch: cycles simulated: 90500  inst.: 1881346 (ipc=20.8) sim_rate=29396 (inst/sec) elapsed = 0:0:01:04 / Tue Jan 29 18:30:41 2019
GPGPU-Sim PTX: 1900000 instructions simulated : ctaid=(1,0,0) tid=(152,0,0)
GPGPU-Sim uArch: cycles simulated: 91000  inst.: 1889730 (ipc=20.8) sim_rate=29072 (inst/sec) elapsed = 0:0:01:05 / Tue Jan 29 18:30:42 2019
GPGPU-Sim uArch: cycles simulated: 91500  inst.: 1900546 (ipc=20.8) sim_rate=28796 (inst/sec) elapsed = 0:0:01:06 / Tue Jan 29 18:30:43 2019
GPGPU-Sim uArch: cycles simulated: 92000  inst.: 1909362 (ipc=20.8) sim_rate=28497 (inst/sec) elapsed = 0:0:01:07 / Tue Jan 29 18:30:44 2019
GPGPU-Sim uArch: cycles simulated: 92500  inst.: 1919818 (ipc=20.8) sim_rate=28232 (inst/sec) elapsed = 0:0:01:08 / Tue Jan 29 18:30:45 2019
GPGPU-Sim uArch: cycles simulated: 93000  inst.: 1932426 (ipc=20.8) sim_rate=28006 (inst/sec) elapsed = 0:0:01:09 / Tue Jan 29 18:30:46 2019
GPGPU-Sim uArch: cycles simulated: 93500  inst.: 1943658 (ipc=20.8) sim_rate=27766 (inst/sec) elapsed = 0:0:01:10 / Tue Jan 29 18:30:47 2019
GPGPU-Sim uArch: cycles simulated: 94000  inst.: 1955818 (ipc=20.8) sim_rate=27546 (inst/sec) elapsed = 0:0:01:11 / Tue Jan 29 18:30:48 2019
GPGPU-Sim uArch: cycles simulated: 94500  inst.: 1964898 (ipc=20.8) sim_rate=26916 (inst/sec) elapsed = 0:0:01:13 / Tue Jan 29 18:30:50 2019
GPGPU-Sim uArch: cycles simulated: 95000  inst.: 1977170 (ipc=20.8) sim_rate=26718 (inst/sec) elapsed = 0:0:01:14 / Tue Jan 29 18:30:51 2019
GPGPU-Sim PTX: 2000000 instructions simulated : ctaid=(0,0,0) tid=(208,0,0)
GPGPU-Sim uArch: cycles simulated: 95500  inst.: 1986186 (ipc=20.8) sim_rate=26482 (inst/sec) elapsed = 0:0:01:15 / Tue Jan 29 18:30:52 2019
GPGPU-Sim uArch: cycles simulated: 96000  inst.: 1998234 (ipc=20.8) sim_rate=26292 (inst/sec) elapsed = 0:0:01:16 / Tue Jan 29 18:30:53 2019
GPGPU-Sim uArch: cycles simulated: 96500  inst.: 2006794 (ipc=20.8) sim_rate=26062 (inst/sec) elapsed = 0:0:01:17 / Tue Jan 29 18:30:54 2019
GPGPU-Sim uArch: cycles simulated: 97000  inst.: 2014674 (ipc=20.8) sim_rate=25829 (inst/sec) elapsed = 0:0:01:18 / Tue Jan 29 18:30:55 2019
GPGPU-Sim uArch: cycles simulated: 97500  inst.: 2026122 (ipc=20.8) sim_rate=25647 (inst/sec) elapsed = 0:0:01:19 / Tue Jan 29 18:30:56 2019
GPGPU-Sim uArch: cycles simulated: 98000  inst.: 2036954 (ipc=20.8) sim_rate=25461 (inst/sec) elapsed = 0:0:01:20 / Tue Jan 29 18:30:57 2019
GPGPU-Sim uArch: cycles simulated: 98500  inst.: 2041922 (ipc=20.7) sim_rate=25208 (inst/sec) elapsed = 0:0:01:21 / Tue Jan 29 18:30:58 2019
GPGPU-Sim uArch: cycles simulated: 99000  inst.: 2052938 (ipc=20.7) sim_rate=25035 (inst/sec) elapsed = 0:0:01:22 / Tue Jan 29 18:30:59 2019
GPGPU-Sim uArch: cycles simulated: 99500  inst.: 2063418 (ipc=20.7) sim_rate=24564 (inst/sec) elapsed = 0:0:01:24 / Tue Jan 29 18:31:01 2019
GPGPU-Sim uArch: cycles simulated: 100000  inst.: 2074146 (ipc=20.7) sim_rate=24401 (inst/sec) elapsed = 0:0:01:25 / Tue Jan 29 18:31:02 2019
GPGPU-Sim uArch: cycles simulated: 100500  inst.: 2080802 (ipc=20.7) sim_rate=24195 (inst/sec) elapsed = 0:0:01:26 / Tue Jan 29 18:31:03 2019
GPGPU-Sim PTX: 2100000 instructions simulated : ctaid=(1,0,0) tid=(208,0,0)
GPGPU-Sim uArch: cycles simulated: 101000  inst.: 2092882 (ipc=20.7) sim_rate=24056 (inst/sec) elapsed = 0:0:01:27 / Tue Jan 29 18:31:04 2019
GPGPU-Sim uArch: cycles simulated: 101500  inst.: 2102242 (ipc=20.7) sim_rate=23889 (inst/sec) elapsed = 0:0:01:28 / Tue Jan 29 18:31:05 2019
GPGPU-Sim uArch: cycles simulated: 102000  inst.: 2111522 (ipc=20.7) sim_rate=23724 (inst/sec) elapsed = 0:0:01:29 / Tue Jan 29 18:31:06 2019
GPGPU-Sim uArch: cycles simulated: 102500  inst.: 2114570 (ipc=20.6) sim_rate=23495 (inst/sec) elapsed = 0:0:01:30 / Tue Jan 29 18:31:07 2019
GPGPU-Sim uArch: cycles simulated: 103000  inst.: 2125154 (ipc=20.6) sim_rate=23353 (inst/sec) elapsed = 0:0:01:31 / Tue Jan 29 18:31:08 2019
GPGPU-Sim uArch: cycles simulated: 103500  inst.: 2136978 (ipc=20.6) sim_rate=23228 (inst/sec) elapsed = 0:0:01:32 / Tue Jan 29 18:31:09 2019
GPGPU-Sim uArch: cycles simulated: 104000  inst.: 2142434 (ipc=20.6) sim_rate=23036 (inst/sec) elapsed = 0:0:01:33 / Tue Jan 29 18:31:10 2019
GPGPU-Sim uArch: cycles simulated: 104500  inst.: 2156146 (ipc=20.6) sim_rate=22937 (inst/sec) elapsed = 0:0:01:34 / Tue Jan 29 18:31:11 2019
GPGPU-Sim uArch: cycles simulated: 105000  inst.: 2167474 (ipc=20.6) sim_rate=22815 (inst/sec) elapsed = 0:0:01:35 / Tue Jan 29 18:31:12 2019
GPGPU-Sim uArch: cycles simulated: 105500  inst.: 2172170 (ipc=20.6) sim_rate=22626 (inst/sec) elapsed = 0:0:01:36 / Tue Jan 29 18:31:13 2019
GPGPU-Sim PTX: 2200000 instructions simulated : ctaid=(1,0,0) tid=(104,0,0)
GPGPU-Sim uArch: cycles simulated: 106000  inst.: 2181258 (ipc=20.6) sim_rate=22487 (inst/sec) elapsed = 0:0:01:37 / Tue Jan 29 18:31:14 2019
GPGPU-Sim uArch: cycles simulated: 106500  inst.: 2187634 (ipc=20.5) sim_rate=22322 (inst/sec) elapsed = 0:0:01:38 / Tue Jan 29 18:31:15 2019
GPGPU-Sim uArch: cycles simulated: 107000  inst.: 2196698 (ipc=20.5) sim_rate=22188 (inst/sec) elapsed = 0:0:01:39 / Tue Jan 29 18:31:16 2019
GPGPU-Sim uArch: cycles simulated: 107500  inst.: 2207946 (ipc=20.5) sim_rate=22079 (inst/sec) elapsed = 0:0:01:40 / Tue Jan 29 18:31:17 2019
GPGPU-Sim uArch: cycles simulated: 108000  inst.: 2215898 (ipc=20.5) sim_rate=21939 (inst/sec) elapsed = 0:0:01:41 / Tue Jan 29 18:31:18 2019
GPGPU-Sim uArch: cycles simulated: 108500  inst.: 2223322 (ipc=20.5) sim_rate=21585 (inst/sec) elapsed = 0:0:01:43 / Tue Jan 29 18:31:20 2019
GPGPU-Sim uArch: cycles simulated: 109000  inst.: 2233458 (ipc=20.5) sim_rate=21475 (inst/sec) elapsed = 0:0:01:44 / Tue Jan 29 18:31:21 2019
GPGPU-Sim uArch: cycles simulated: 109500  inst.: 2238802 (ipc=20.4) sim_rate=21321 (inst/sec) elapsed = 0:0:01:45 / Tue Jan 29 18:31:22 2019
GPGPU-Sim uArch: cycles simulated: 110000  inst.: 2247274 (ipc=20.4) sim_rate=21200 (inst/sec) elapsed = 0:0:01:46 / Tue Jan 29 18:31:23 2019
GPGPU-Sim uArch: cycles simulated: 110500  inst.: 2260498 (ipc=20.5) sim_rate=21126 (inst/sec) elapsed = 0:0:01:47 / Tue Jan 29 18:31:24 2019
GPGPU-Sim uArch: cycles simulated: 111000  inst.: 2271258 (ipc=20.5) sim_rate=21030 (inst/sec) elapsed = 0:0:01:48 / Tue Jan 29 18:31:25 2019
GPGPU-Sim PTX: 2300000 instructions simulated : ctaid=(1,0,0) tid=(416,0,0)
GPGPU-Sim uArch: cycles simulated: 111500  inst.: 2276658 (ipc=20.4) sim_rate=20886 (inst/sec) elapsed = 0:0:01:49 / Tue Jan 29 18:31:26 2019
GPGPU-Sim uArch: cycles simulated: 112000  inst.: 2283194 (ipc=20.4) sim_rate=20756 (inst/sec) elapsed = 0:0:01:50 / Tue Jan 29 18:31:27 2019
GPGPU-Sim uArch: cycles simulated: 112500  inst.: 2294818 (ipc=20.4) sim_rate=20674 (inst/sec) elapsed = 0:0:01:51 / Tue Jan 29 18:31:28 2019
GPGPU-Sim uArch: cycles simulated: 113000  inst.: 2304258 (ipc=20.4) sim_rate=20573 (inst/sec) elapsed = 0:0:01:52 / Tue Jan 29 18:31:29 2019
GPGPU-Sim uArch: cycles simulated: 113500  inst.: 2310714 (ipc=20.4) sim_rate=20448 (inst/sec) elapsed = 0:0:01:53 / Tue Jan 29 18:31:30 2019
GPGPU-Sim uArch: cycles simulated: 114000  inst.: 2319090 (ipc=20.3) sim_rate=20342 (inst/sec) elapsed = 0:0:01:54 / Tue Jan 29 18:31:31 2019
GPGPU-Sim uArch: cycles simulated: 114500  inst.: 2329370 (ipc=20.3) sim_rate=20255 (inst/sec) elapsed = 0:0:01:55 / Tue Jan 29 18:31:32 2019
GPGPU-Sim uArch: cycles simulated: 115000  inst.: 2339818 (ipc=20.3) sim_rate=20170 (inst/sec) elapsed = 0:0:01:56 / Tue Jan 29 18:31:33 2019
GPGPU-Sim uArch: cycles simulated: 115500  inst.: 2348194 (ipc=20.3) sim_rate=20070 (inst/sec) elapsed = 0:0:01:57 / Tue Jan 29 18:31:34 2019
GPGPU-Sim uArch: cycles simulated: 116000  inst.: 2357666 (ipc=20.3) sim_rate=19812 (inst/sec) elapsed = 0:0:01:59 / Tue Jan 29 18:31:36 2019
GPGPU-Sim uArch: cycles simulated: 116500  inst.: 2360898 (ipc=20.3) sim_rate=19674 (inst/sec) elapsed = 0:0:02:00 / Tue Jan 29 18:31:37 2019
GPGPU-Sim PTX: 2400000 instructions simulated : ctaid=(1,0,0) tid=(208,0,0)
GPGPU-Sim uArch: cycles simulated: 117000  inst.: 2371378 (ipc=20.3) sim_rate=19598 (inst/sec) elapsed = 0:0:02:01 / Tue Jan 29 18:31:38 2019
GPGPU-Sim uArch: cycles simulated: 117500  inst.: 2383850 (ipc=20.3) sim_rate=19539 (inst/sec) elapsed = 0:0:02:02 / Tue Jan 29 18:31:39 2019
GPGPU-Sim uArch: cycles simulated: 118000  inst.: 2391266 (ipc=20.3) sim_rate=19441 (inst/sec) elapsed = 0:0:02:03 / Tue Jan 29 18:31:40 2019
GPGPU-Sim uArch: cycles simulated: 118500  inst.: 2399602 (ipc=20.2) sim_rate=19351 (inst/sec) elapsed = 0:0:02:04 / Tue Jan 29 18:31:41 2019
GPGPU-Sim uArch: cycles simulated: 119000  inst.: 2404626 (ipc=20.2) sim_rate=19237 (inst/sec) elapsed = 0:0:02:05 / Tue Jan 29 18:31:42 2019
GPGPU-Sim uArch: cycles simulated: 119500  inst.: 2412466 (ipc=20.2) sim_rate=19146 (inst/sec) elapsed = 0:0:02:06 / Tue Jan 29 18:31:43 2019
GPGPU-Sim uArch: cycles simulated: 120000  inst.: 2422674 (ipc=20.2) sim_rate=19076 (inst/sec) elapsed = 0:0:02:07 / Tue Jan 29 18:31:44 2019
GPGPU-Sim uArch: cycles simulated: 120500  inst.: 2432242 (ipc=20.2) sim_rate=19001 (inst/sec) elapsed = 0:0:02:08 / Tue Jan 29 18:31:45 2019
GPGPU-Sim uArch: cycles simulated: 121000  inst.: 2437234 (ipc=20.1) sim_rate=18893 (inst/sec) elapsed = 0:0:02:09 / Tue Jan 29 18:31:46 2019
GPGPU-Sim uArch: cycles simulated: 121500  inst.: 2444074 (ipc=20.1) sim_rate=18800 (inst/sec) elapsed = 0:0:02:10 / Tue Jan 29 18:31:47 2019
GPGPU-Sim uArch: cycles simulated: 122000  inst.: 2453610 (ipc=20.1) sim_rate=18729 (inst/sec) elapsed = 0:0:02:11 / Tue Jan 29 18:31:48 2019
GPGPU-Sim uArch: cycles simulated: 122500  inst.: 2461146 (ipc=20.1) sim_rate=18645 (inst/sec) elapsed = 0:0:02:12 / Tue Jan 29 18:31:49 2019
GPGPU-Sim PTX: 2500000 instructions simulated : ctaid=(0,0,0) tid=(128,0,0)
GPGPU-Sim uArch: cycles simulated: 123000  inst.: 2471922 (ipc=20.1) sim_rate=18447 (inst/sec) elapsed = 0:0:02:14 / Tue Jan 29 18:31:51 2019
GPGPU-Sim uArch: cycles simulated: 123500  inst.: 2476946 (ipc=20.1) sim_rate=18347 (inst/sec) elapsed = 0:0:02:15 / Tue Jan 29 18:31:52 2019
GPGPU-Sim uArch: cycles simulated: 124000  inst.: 2481874 (ipc=20.0) sim_rate=18249 (inst/sec) elapsed = 0:0:02:16 / Tue Jan 29 18:31:53 2019
GPGPU-Sim uArch: cycles simulated: 124500  inst.: 2491298 (ipc=20.0) sim_rate=18184 (inst/sec) elapsed = 0:0:02:17 / Tue Jan 29 18:31:54 2019
GPGPU-Sim uArch: cycles simulated: 125000  inst.: 2500018 (ipc=20.0) sim_rate=18116 (inst/sec) elapsed = 0:0:02:18 / Tue Jan 29 18:31:55 2019
GPGPU-Sim uArch: cycles simulated: 125500  inst.: 2509794 (ipc=20.0) sim_rate=18056 (inst/sec) elapsed = 0:0:02:19 / Tue Jan 29 18:31:56 2019
GPGPU-Sim uArch: cycles simulated: 126000  inst.: 2521866 (ipc=20.0) sim_rate=18013 (inst/sec) elapsed = 0:0:02:20 / Tue Jan 29 18:31:57 2019
GPGPU-Sim uArch: cycles simulated: 126500  inst.: 2527314 (ipc=20.0) sim_rate=17797 (inst/sec) elapsed = 0:0:02:22 / Tue Jan 29 18:31:59 2019
[...]
gpgpu_stall_shd_mem[l_mem_ld][wb_rsrv_fail] = 0
gpu_reg_bank_conflict_stalls = 0
Warp Occupancy Distribution:
Stall:7164873	W0_Idle:2617752	W0_Scoreboard:6649773	W1:129856	W2:3320	W3:3274	W4:3526	W5:3265	W6:3200	W7:3184	W8:156256	W9:3069	W10:3069	W11:3069	W12:3127	W13:3275	W14:4270	W15:6707	W16:9285	W17:6623	W18:4246	W19:3269	W20:3127	W21:3069	W22:3069	W23:3069	W24:3078	W25:3069	W26:3069	W27:3069	W28:3069	W29:3069	W30:3069	W31:3078	W32:3222276
traffic_breakdown_coretomem[CONST_ACC_R] = 208 {8:26,}
traffic_breakdown_coretomem[GLOBAL_ACC_R] = 4884792 {8:610599,}
traffic_breakdown_coretomem[GLOBAL_ACC_W] = 26120304 {40:630063,72:99,136:6696,}
traffic_breakdown_coretomem[INST_ACC_R] = 6040 {8:755,}
traffic_breakdown_coretomem[LOCAL_ACC_W] = 76608 {40:18,136:558,}
traffic_breakdown_memtocore[CONST_ACC_R] = 1872 {72:26,}
traffic_breakdown_memtocore[GLOBAL_ACC_R] = 83041464 {136:610599,}
traffic_breakdown_memtocore[GLOBAL_ACC_W] = 5094864 {8:636858,}
traffic_breakdown_memtocore[INST_ACC_R] = 102680 {136:755,}
traffic_breakdown_memtocore[LOCAL_ACC_W] = 4608 {8:576,}
maxmrqlatency = 265 
maxdqlatency = 0 
maxmflatency = 652 
averagemflatency = 200 
max_icnt2mem_latency = 93 
max_icnt2sh_latency = 6289645 
mrq_lat_table:3326 	84 	406 	235 	421 	537 	649 	328 	4 	0 	0 	0 	0 	0 	0 	0 	0 	0 	0 	0 	0 	0 	0 	0 	0 	0 	0 	0 	0 	0 	0 	0 	
dq_lat_table:0 	0 	0 	0 	0 	0 	0 	0 	0 	0 	0 	0 	0 	0 	0 	0 	0 	0 	0 	0 	0 	0 	0 	0 	0 	0 	0 	0 	0 	0 	0 	0 	
mf_lat_table:0 	0 	0 	0 	0 	0 	0 	1094645 	152766 	648 	0 	0 	0 	0 	0 	0 	0 	0 	0 	0 	0 	0 	0 	0 	0 	0 	0 	0 	0 	0 	0 	0 	
icnt2mem_lat_table:0 	0 	0 	509370 	91339 	647067 	1038 	0 	0 	0 	0 	0 	0 	0 	0 	0 	0 	0 	0 	0 	0 	0 	0 	0 	
icnt2sh_lat_table:0 	0 	0 	49448 	98387 	203243 	220805 	38654 	88 	0 	63 	126 	127 	952 	10908 	21547 	26446 	8576 	1591 	70033 	72091 	212478 	212496 	0 	
mf_lat_pw_table:0 	0 	0 	0 	0 	0 	0 	11209 	173 	0 	0 	0 	0 	0 	0 	0 	0 	0 	0 	0 	0 	0 	0 	0 	0 	0 	0 	0 	0 	0 	0 	0 	
maximum concurrent accesses to same row:
dram[0]:        64        64        64        64        20        20        64        64        54         0         0         0         0         0         0         0 
dram[1]:        64        64        64        64        20        20        64        64         0         0         0         0         0         0         0         0 
dram[2]:        64        64        64        64        20        24        64        64         0        62         0         0         0         0         0         0 
dram[3]:        64        64        64        64        18        24        64        64        64         0         0         0         0         0         0         0 
dram[4]:        64        64        64        64        20        24        64        64         0        62         0         0         0         0         0         0 
dram[5]:        64        64        64        64        20        22        64        64        60         0         0         0         0         0         0         0 
maximum service time to same row:
dram[0]:      6797    217417     15272     15287     13466     13370    216151    241562     69377      2582      2738      2548         0         0     14993     15008 
dram[1]:      6688    348888     15269     15320     13337     13397    249074    299860     15458      2704      2736      2671         0         0     14990     15005 
dram[2]:     68159      8651     15299     15284     13406     13477    221053    217718     15388    225664      2508      2717         0         0     14987     15002 
dram[3]:     70008      5846     15297     15281     13355     13409    260149    248660    192175      2694      2510      2741         0         0     14984     14999 
dram[4]:    214980      9026     15293     15278     13453     13459    233162    224142     15402    183537      2592    365660         0         0     14173     15032 
dram[5]:    216359      6230     15290     15275     13438     13367    278802    269645    149325      2734      2594         0         0         0     15011     14996 
average row accesses per activate:
dram[0]: 23.400000 19.000000 40.000000 38.000000 42.000000 42.000000 38.333332 39.333332 21.666666 62.000000  2.000000  2.000000      -nan      -nan 40.000000 41.000000 
dram[1]: 23.200001 14.250000 40.000000 38.000000 42.000000 42.000000 38.666668 38.333332 64.000000 62.000000  2.000000  2.000000      -nan      -nan 40.000000 44.000000 
dram[2]: 23.200001 14.000000 40.000000 38.000000 42.000000 44.000000 38.666668 39.333332 64.000000 31.500000  2.000000  2.000000      -nan      -nan 40.000000 44.000000 
dram[3]: 16.571428 14.000000 40.000000 38.000000 41.000000 44.000000 37.666668 39.333332 32.500000 62.000000  2.000000  2.000000      -nan      -nan 40.000000 44.000000 
dram[4]: 27.500000 27.500000 38.000000 38.000000 42.000000 44.000000 39.333332 39.333332 64.000000 31.500000  2.000000  2.000000      -nan      -nan 42.000000 44.000000 
dram[5]: 27.750000 18.500000 38.000000 38.000000 42.000000 43.000000 39.333332 38.000000 21.000000 62.000000  2.000000      -nan      -nan      -nan 42.000000 44.000000 
average row locality = 5990/196 = 30.561224
number of total memory accesses made:
dram[0]:         0         0         0         0         0         0         0         0         0         0         0         0         0         0         0         0 
dram[1]:         0         0         0         0         0         0         0         0         0         0         0         0         0         0         0         0 
dram[2]:         0         0         0         0         0         0         0         0         0         0         0         0         0         0         0         0 
dram[3]:         0         0         0         0         0         0         0         0         0         0         0         0         0         0         0         0 
dram[4]:         0         0         0         0         0         0         0         0         0         0         0         0         0         0         0         0 
dram[5]:         0         0         0         0         0         0         0         0         0         0         0         0         0         0         0         0 
total accesses: 0
min_bank_accesses = 0!
min_chip_accesses = 0!
number of total read accesses:
dram[0]:        61        60        40        38        42        42        64        64        33        32         2         2         0         0        20        21 
dram[1]:        60        60        40        38        42        42        64        62        32        32         2         2         0         0        20        22 
dram[2]:        60        58        40        38        42        44        64        64        32        33         2         2         0         0        20        22 
dram[3]:        60        58        40        38        41        44        62        64        33        32         2         2         0         0        20        22 
dram[4]:        56        56        38        38        42        44        64        64        32        33         2         1         0         0        22        22 
dram[5]:        57        57        38        38        42        43        64        62        32        32         2         0         0         0        22        22 
total reads: 3103
min_bank_accesses = 0!
chip skew: 521/511 = 1.02
number of total write accesses:
dram[0]:        56        54        40        38        42        42        51        54        32        30         0         0         0         0        20        20 
dram[1]:        56        54        40        38        42        42        52        53        32        30         0         0         0         0        20        22 
dram[2]:        56        54        40        38        42        44        52        54        32        30         0         0         0         0        20        22 
dram[3]:        56        54        40        38        41        44        51        54        32        30         0         0         0         0        20        22 
dram[4]:        54        54        38        38        42        44        54        54        32        30         0         1         0         0        20        22 
dram[5]:        54        54        38        38        42        43        54        52        31        30         0         0         0         0        20        22 
total reads: 2887
min_bank_accesses = 0!
chip skew: 484/478 = 1.01
average mf latency per bank:
dram[0]:      30802     31883     43433     44660     42629     45022     33708     33750     57099     49464      5461      5713    none      none       55544     59704
dram[1]:      31435     32023     43887     45065     46891     49587     33757     34837     52264     50524      5460      5731    none      none       57301     56215
dram[2]:      30989     32030     42555     44702     43506     43371     33423     33371     50814     50022      5728      5488    none      none       54946     54612
dram[3]:      31515     32957     43179     46122     47707     47225     34961     34123     54748     50135      5782      5510    none      none       56401     57293
dram[4]:      32784     33500     43786     45697     43848     45865     33526     34108     49976     54368      5759      3377    none      none       54325     56462
dram[5]:      35729     33401     47869     47559     50864     49653     36795     35204     58262     52358      5770    none      none      none       71195     56938
maximum mf latency per bank:
dram[0]:        597       518       568       566       554       548       610       532       608       514       293       331         0         0       562       505
dram[1]:        622       592       591       598       587       564       584       606       624       608       302       293         0         0       606       573
dram[2]:        535       563       553       538       533       556       550       540       508       537       330       275         0         0       550       600
dram[3]:        543       652       566       641       560       606       559       589       552       580       330       276         0         0       547       547
dram[4]:        638       527       556       573       545       568       586       559       551       574       346       255         0         0       530       506
dram[5]:        556       638       562       603       570       639       607       632       570       562       331         0         0         0       547       622
Memory Partition 0: 
Cache L2_bank_000:
MSHR contents

Cache L2_bank_001:
MSHR contents

In Dram Latency Queue (total = 0): 
DRAM[0]: 16 bks, busW=4 BL=8 CL=12, tRRD=2 tCCD=6, tRCD=12 tRAS=28 tRP=12 tRC=40
n_cmd=6289646 n_nop=6287960 n_act=34 n_pre=20 n_req=1000 n_rd=1042 n_write=590 bw_util=0.0005189
n_activity=10776 dram_eff=0.3029
bk0: 122a 6287790i bk1: 120a 6287844i bk2: 80a 6288346i bk3: 76a 6288316i bk4: 84a 6287989i bk5: 84a 6287887i bk6: 128a 6287731i bk7: 128a 6287618i bk8: 66a 6288331i bk9: 64a 6288482i bk10: 4a 6289618i bk11: 4a 6289610i bk12: 0a 6289647i bk13: 0a 6289650i bk14: 40a 6289105i bk15: 42a 6288953i 
dram_util_bins: 0 0 0 0 0 0 0 0 0 0
dram_eff_bins: 0 0 0 0 0 0 0 0 0 0
mrqq: max=16 avg=0.0041112
Memory Partition 1: 
Cache L2_bank_002:
MSHR contents

Cache L2_bank_003:
MSHR contents

In Dram Latency Queue (total = 0): 
DRAM[1]: 16 bks, busW=4 BL=8 CL=12, tRRD=2 tCCD=6, tRCD=12 tRAS=28 tRP=12 tRC=40
n_cmd=6289646 n_nop=6287973 n_act=33 n_pre=19 n_req=999 n_rd=1036 n_write=585 bw_util=0.0005155
n_activity=10600 dram_eff=0.3058
bk0: 120a 6287777i bk1: 120a 6287796i bk2: 80a 6288157i bk3: 76a 6288270i bk4: 84a 6287964i bk5: 84a 6287920i bk6: 128a 6287741i bk7: 124a 6287508i bk8: 64a 6288258i bk9: 64a 6288369i bk10: 4a 6289619i bk11: 4a 6289616i bk12: 0a 6289642i bk13: 0a 6289649i bk14: 40a 6289005i bk15: 44a 6288850i 
dram_util_bins: 0 0 0 0 0 0 0 0 0 0
dram_eff_bins: 0 0 0 0 0 0 0 0 0 0
mrqq: max=16 avg=0.00423267
Memory Partition 2: 
Cache L2_bank_004:
MSHR contents

Cache L2_bank_005:
MSHR contents

In Dram Latency Queue (total = 0): 
DRAM[2]: 16 bks, busW=4 BL=8 CL=12, tRRD=2 tCCD=6, tRCD=12 tRAS=28 tRP=12 tRC=40
n_cmd=6289646 n_nop=6287952 n_act=34 n_pre=20 n_req=1005 n_rd=1042 n_write=598 bw_util=0.0005215
n_activity=10889 dram_eff=0.3012
bk0: 120a 6287980i bk1: 116a 6287823i bk2: 80a 6288352i bk3: 76a 6288180i bk4: 84a 6287921i bk5: 88a 6287885i bk6: 128a 6287755i bk7: 128a 6287604i bk8: 64a 6288471i bk9: 66a 6288535i bk10: 4a 6289611i bk11: 4a 6289621i bk12: 0a 6289645i bk13: 0a 6289648i bk14: 40a 6289110i bk15: 44a 6288936i 
dram_util_bins: 0 0 0 0 0 0 0 0 0 0
dram_eff_bins: 0 0 0 0 0 0 0 0 0 0
mrqq: max=16 avg=0.00362866
Memory Partition 3: 
Cache L2_bank_006:
MSHR contents

Cache L2_bank_007:
MSHR contents

In Dram Latency Queue (total = 0): 
DRAM[3]: 16 bks, busW=4 BL=8 CL=12, tRRD=2 tCCD=6, tRCD=12 tRAS=28 tRP=12 tRC=40
n_cmd=6289646 n_nop=6287966 n_act=36 n_pre=22 n_req=1000 n_rd=1036 n_write=586 bw_util=0.0005158
n_activity=10741 dram_eff=0.302
bk0: 120a 6287743i bk1: 116a 6287872i bk2: 80a 6288261i bk3: 76a 6288227i bk4: 82a 6287888i bk5: 88a 6287852i bk6: 124a 6287657i bk7: 128a 6287570i bk8: 66a 6288379i bk9: 64a 6288530i bk10: 4a 6289613i bk11: 4a 6289618i bk12: 0a 6289642i bk13: 0a 6289646i bk14: 40a 6289050i bk15: 44a 6288913i 
dram_util_bins: 0 0 0 0 0 0 0 0 0 0
dram_eff_bins: 0 0 0 0 0 0 0 0 0 0
mrqq: max=16 avg=0.00412265
Memory Partition 4: 
Cache L2_bank_008:
MSHR contents

Cache L2_bank_009:
MSHR contents

In Dram Latency Queue (total = 0): 
DRAM[4]: 16 bks, busW=4 BL=8 CL=12, tRRD=2 tCCD=6, tRCD=12 tRAS=28 tRP=12 tRC=40
n_cmd=6289646 n_nop=6287981 n_act=29 n_pre=15 n_req=997 n_rd=1028 n_write=593 bw_util=0.0005155
n_activity=10421 dram_eff=0.3111
bk0: 112a 6287953i bk1: 112a 6287937i bk2: 76a 6288401i bk3: 76a 6288223i bk4: 84a 6287855i bk5: 88a 6287825i bk6: 128a 6287619i bk7: 128a 6287616i bk8: 64a 6288406i bk9: 66a 6288385i bk10: 4a 6289600i bk11: 2a 6289617i bk12: 0a 6289644i bk13: 0a 6289648i bk14: 44a 6288976i bk15: 44a 6288812i 
dram_util_bins: 0 0 0 0 0 0 0 0 0 0
dram_eff_bins: 0 0 0 0 0 0 0 0 0 0
mrqq: max=16 avg=0.00428196
Memory Partition 5: 
Cache L2_bank_010:
MSHR contents

Cache L2_bank_011:
MSHR contents

In Dram Latency Queue (total = 0): 
DRAM[5]: 16 bks, busW=4 BL=8 CL=12, tRRD=2 tCCD=6, tRCD=12 tRAS=28 tRP=12 tRC=40
n_cmd=6289646 n_nop=6287997 n_act=31 n_pre=18 n_req=989 n_rd=1022 n_write=578 bw_util=0.0005088
n_activity=10662 dram_eff=0.3001
bk0: 114a 6287859i bk1: 114a 6287876i bk2: 76a 6288214i bk3: 76a 6288357i bk4: 84a 6288131i bk5: 86a 6287963i bk6: 128a 6287718i bk7: 124a 6287791i bk8: 64a 6288409i bk9: 64a 6288597i bk10: 4a 6289611i bk11: 0a 6289641i bk12: 0a 6289644i bk13: 0a 6289647i bk14: 44a 6289000i bk15: 44a 6288994i 
dram_util_bins: 0 0 0 0 0 0 0 0 0 0
dram_eff_bins: 0 0 0 0 0 0 0 0 0 0
mrqq: max=16 avg=0.00383678

========= L2 cache stats =========
L2_cache_bank[0]: Access = 103780, Miss = 262, Miss_rate = 0.003, Pending_hits = 9, Reservation_fails = 0
L2_cache_bank[1]: Access = 103442, Miss = 259, Miss_rate = 0.003, Pending_hits = 11, Reservation_fails = 0
L2_cache_bank[2]: Access = 103125, Miss = 260, Miss_rate = 0.003, Pending_hits = 6, Reservation_fails = 0
L2_cache_bank[3]: Access = 104980, Miss = 258, Miss_rate = 0.002, Pending_hits = 10, Reservation_fails = 0
L2_cache_bank[4]: Access = 101827, Miss = 260, Miss_rate = 0.003, Pending_hits = 6, Reservation_fails = 0
L2_cache_bank[5]: Access = 103369, Miss = 261, Miss_rate = 0.003, Pending_hits = 9, Reservation_fails = 0
L2_cache_bank[6]: Access = 103916, Miss = 258, Miss_rate = 0.002, Pending_hits = 6, Reservation_fails = 0
L2_cache_bank[7]: Access = 104269, Miss = 260, Miss_rate = 0.002, Pending_hits = 9, Reservation_fails = 0
L2_cache_bank[8]: Access = 103137, Miss = 256, Miss_rate = 0.002, Pending_hits = 6, Reservation_fails = 0
L2_cache_bank[9]: Access = 105268, Miss = 258, Miss_rate = 0.002, Pending_hits = 8, Reservation_fails = 0
L2_cache_bank[10]: Access = 106990, Miss = 257, Miss_rate = 0.002, Pending_hits = 7, Reservation_fails = 0
L2_cache_bank[11]: Access = 104711, Miss = 254, Miss_rate = 0.002, Pending_hits = 8, Reservation_fails = 0
L2_total_cache_accesses = 1248814
L2_total_cache_misses = 3103
L2_total_cache_miss_rate = 0.0025
L2_total_cache_pending_hits = 95
L2_total_cache_reservation_fails = 0
L2_total_cache_breakdown:
	L2_cache_stats_breakdown[GLOBAL_ACC_R][HIT] = 610365
	L2_cache_stats_breakdown[GLOBAL_ACC_R][HIT_RESERVED] = 65
	L2_cache_stats_breakdown[GLOBAL_ACC_R][MISS] = 169
	L2_cache_stats_breakdown[CONST_ACC_R][HIT] = 24
	L2_cache_stats_breakdown[CONST_ACC_R][HIT_RESERVED] = 1
	L2_cache_stats_breakdown[CONST_ACC_R][MISS] = 1
	L2_cache_stats_breakdown[GLOBAL_ACC_W][HIT] = 634323
	L2_cache_stats_breakdown[GLOBAL_ACC_W][MISS] = 2535
	L2_cache_stats_breakdown[LOCAL_ACC_W][HIT] = 224
	L2_cache_stats_breakdown[LOCAL_ACC_W][MISS] = 352
	L2_cache_stats_breakdown[INST_ACC_R][HIT] = 680
	L2_cache_stats_breakdown[INST_ACC_R][HIT_RESERVED] = 29
	L2_cache_stats_breakdown[INST_ACC_R][MISS] = 46
L2_cache_data_port_util = 0.041
L2_cache_fill_port_util = 0.000

icnt_total_pkts_mem_to_simt=3694282
icnt_total_pkts_simt_to_mem=1908109
LD_mem_lat_dist  0 0 0 0 0 0 0 0 0 0 0 0 0 0 0 0 0 0 0 0 0 0 0 0 0 0 0
ST_mem_lat_dist  0 0 0 0 0 0 0 0 0 0 0 0 0 0 0 0 0 0 0 0 0 0 0 0 0 0 0
----------------------------Interconnect-DETAILS--------------------------------
Class 0:
Packet latency average = 10.8696
	minimum = 6
	maximum = 110
Network latency average = 10.3454
	minimum = 6
	maximum = 93
Slowest packet = 2496913
Flit latency average = 9.125
	minimum = 6
	maximum = 89
Slowest flit = 5600236
Fragmentation average = 0
	minimum = 0
	maximum = 0
Injected packet rate average = 0.00027129
	minimum = 0 (at node 0)
	maximum = 0.00196391 (at node 12)
Accepted packet rate average = 0.00027129
	minimum = 0 (at node 0)
	maximum = 0.00196391 (at node 12)
Injected flit rate average = 0.000812561
	minimum = 0 (at node 0)
	maximum = 0.00412243 (at node 12)
Accepted flit rate average= 0.000812561
	minimum = 0 (at node 0)
	maximum = 0.00762562 (at node 12)
Injected packet length average = 2.99517
Accepted packet length average = 2.99517
Total in-flight flits = 0 (0 measured)
====== Overall Traffic Statistics ======
====== Traffic class 0 ======
Packet latency average = 14.1518 (36 samples)
	minimum = 6 (36 samples)
	maximum = 147.278 (36 samples)
Network latency average = 12.3869 (36 samples)
	minimum = 6 (36 samples)
	maximum = 122.222 (36 samples)
Flit latency average = 12.9957 (36 samples)
	minimum = 6 (36 samples)
	maximum = 118.611 (36 samples)
Fragmentation average = 0 (36 samples)
	minimum = 0 (36 samples)
	maximum = 0 (36 samples)
Injected packet rate average = 0.00697545 (36 samples)
	minimum = 0 (36 samples)
	maximum = 0.0497685 (36 samples)
Accepted packet rate average = 0.00697545 (36 samples)
	minimum = 0 (36 samples)
	maximum = 0.0497685 (36 samples)
Injected flit rate average = 0.0157184 (36 samples)
	minimum = 0 (36 samples)
	maximum = 0.0776421 (36 samples)
Accepted flit rate average = 0.0157184 (36 samples)
	minimum = 0 (36 samples)
	maximum = 0.148468 (36 samples)
Injected packet size average = 2.25339 (36 samples)
Accepted packet size average = 2.25339 (36 samples)
Hops average = 1 (36 samples)
----------------------------END-of-Interconnect-DETAILS-------------------------


gpgpu_simulation_time = 0 days, 2 hrs, 28 min, 26 sec (8906 sec)
gpgpu_simulation_rate = 11631 (inst/sec)
gpgpu_simulation_rate = 706 (cycle/sec)
GPGPU-Sim API: Stream Manager State
GPGPU-Sim: detected inactive GPU simulation thread
GPU Execution: 8904.548408
FREE TIME: 0.000014
TIME TO SEND BACK: 0.016200
SEND ARRAY X BACK: 0.007255
SEND ARRAY Y BACK: 0.004130
SEND WEIGHTS BACK: 0.004801
XE: nan
YE: nan
nan
PARTICLE FILTER TOOK 8904.603144
ENTIRE PROGRAM TOOK 8904.655455
