

        *** GPGPU-Sim Simulator Version 3.2.2  [build 0] ***


GPGPU-Sim PTX: simulation mode 0 (can change with PTX_SIM_MODE_FUNC environment variable:
               1=functional simulation only, 0=detailed performance simulator)
GPGPU-Sim: Configuration options:

-network_mode                           1 # Interconnection network mode
-inter_config_file   config_fermi_islip.icnt # Interconnection network config file
-gpgpu_ptx_use_cuobjdump                    1 # Use cuobjdump to extract ptx and sass from binaries
-gpgpu_experimental_lib_support                    0 # Try to extract code from cuda libraries [Broken because of unknown cudaGetExportTable]
-gpgpu_ptx_convert_to_ptxplus                    0 # Convert SASS (native ISA) to ptxplus and run ptxplus
-gpgpu_ptx_force_max_capability                   20 # Force maximum compute capability
-gpgpu_ptx_inst_debug_to_file                    0 # Dump executed instructions' debug information to file
-gpgpu_ptx_inst_debug_file       inst_debug.txt # Executed instructions' debug output file
-gpgpu_ptx_inst_debug_thread_uid                    1 # Thread UID for executed instructions' debug output
-gpgpu_simd_model                       1 # 1 = post-dominator
-gpgpu_shader_core_pipeline              1536:32 # shader core pipeline config, i.e., {<nthread>:<warpsize>}
-gpgpu_tex_cache:l1  4:128:24,L:R:m:N:L,F:128:4,128:2 # per-shader L1 texture cache  (READ-ONLY) config  {<nsets>:<bsize>:<assoc>,<rep>:<wr>:<alloc>:<wr_alloc>,<mshr>:<N>:<merge>,<mq>:<rf>}
-gpgpu_const_cache:l1 64:64:2,L:R:f:N:L,A:2:32,4 # per-shader L1 constant memory cache  (READ-ONLY) config  {<nsets>:<bsize>:<assoc>,<rep>:<wr>:<alloc>:<wr_alloc>,<mshr>:<N>:<merge>,<mq>} 
-gpgpu_cache:il1     4:128:4,L:R:f:N:L,A:2:32,4 # shader L1 instruction cache config  {<nsets>:<bsize>:<assoc>,<rep>:<wr>:<alloc>:<wr_alloc>,<mshr>:<N>:<merge>,<mq>} 
-gpgpu_cache:dl1     32:128:4,L:L:m:N:H,A:32:8,8 # per-shader L1 data cache config  {<nsets>:<bsize>:<assoc>,<rep>:<wr>:<alloc>:<wr_alloc>,<mshr>:<N>:<merge>,<mq> | none}
-gpgpu_cache:dl1PrefL1                 none # per-shader L1 data cache config  {<nsets>:<bsize>:<assoc>,<rep>:<wr>:<alloc>:<wr_alloc>,<mshr>:<N>:<merge>,<mq> | none}
-gpgpu_cache:dl1PreShared                 none # per-shader L1 data cache config  {<nsets>:<bsize>:<assoc>,<rep>:<wr>:<alloc>:<wr_alloc>,<mshr>:<N>:<merge>,<mq> | none}
-gmem_skip_L1D                          0 # global memory access skip L1D cache (implements -Xptxas -dlcm=cg, default=no skip)
-gpgpu_perfect_mem                      0 # enable perfect memory mode (no cache miss)
-n_regfile_gating_group                    4 # group of lanes that should be read/written together)
-gpgpu_clock_gated_reg_file                    0 # enable clock gated reg file for power calculations
-gpgpu_clock_gated_lanes                    0 # enable clock gated lanes for power calculations
-gpgpu_shader_registers                32768 # Number of registers per shader core. Limits number of concurrent CTAs. (default 8192)
-gpgpu_shader_cta                       8 # Maximum number of concurrent CTAs in shader (default 8)
-gpgpu_num_cta_barriers                   16 # Maximum number of named barriers per CTA (default 16)
-gpgpu_n_clusters                      15 # number of processing clusters
-gpgpu_n_cores_per_cluster                    1 # number of simd cores per cluster
-gpgpu_n_cluster_ejection_buffer_size                    8 # number of packets in ejection buffer
-gpgpu_n_ldst_response_buffer_size                    2 # number of response packets in ld/st unit ejection buffer
-gpgpu_shmem_size                   16384 # Size of shared memory per shader core (default 16kB)
-gpgpu_shmem_size                   49152 # Size of shared memory per shader core (default 16kB)
-gpgpu_shmem_size_PrefL1                16384 # Size of shared memory per shader core (default 16kB)
-gpgpu_shmem_size_PrefShared                16384 # Size of shared memory per shader core (default 16kB)
-gpgpu_shmem_num_banks                   32 # Number of banks in the shared memory in each shader core (default 16)
-gpgpu_shmem_limited_broadcast                    0 # Limit shared memory to do one broadcast per cycle (default on)
-gpgpu_shmem_warp_parts                    1 # Number of portions a warp is divided into for shared memory bank conflict check 
-gpgpu_warpdistro_shader                   -1 # Specify which shader core to collect the warp size distribution from
-gpgpu_warp_issue_shader                    0 # Specify which shader core to collect the warp issue distribution from
-gpgpu_local_mem_map                    1 # Mapping from local memory space address to simulated GPU physical address space (default = enabled)
-gpgpu_num_reg_banks                   16 # Number of register banks (default = 8)
-gpgpu_reg_bank_use_warp_id                    0 # Use warp ID in mapping registers to banks (default = off)
-gpgpu_operand_collector_num_units_sp                    6 # number of collector units (default = 4)
-gpgpu_operand_collector_num_units_sfu                    8 # number of collector units (default = 4)
-gpgpu_operand_collector_num_units_mem                    2 # number of collector units (default = 2)
-gpgpu_operand_collector_num_units_gen                    0 # number of collector units (default = 0)
-gpgpu_operand_collector_num_in_ports_sp                    2 # number of collector unit in ports (default = 1)
-gpgpu_operand_collector_num_in_ports_sfu                    1 # number of collector unit in ports (default = 1)
-gpgpu_operand_collector_num_in_ports_mem                    1 # number of collector unit in ports (default = 1)
-gpgpu_operand_collector_num_in_ports_gen                    0 # number of collector unit in ports (default = 0)
-gpgpu_operand_collector_num_out_ports_sp                    2 # number of collector unit in ports (default = 1)
-gpgpu_operand_collector_num_out_ports_sfu                    1 # number of collector unit in ports (default = 1)
-gpgpu_operand_collector_num_out_ports_mem                    1 # number of collector unit in ports (default = 1)
-gpgpu_operand_collector_num_out_ports_gen                    0 # number of collector unit in ports (default = 0)
-gpgpu_coalesce_arch                   13 # Coalescing arch (default = 13, anything else is off for now)
-gpgpu_num_sched_per_core                    2 # Number of warp schedulers per core
-gpgpu_max_insn_issue_per_warp                    1 # Max number of instructions that can be issued per warp in one cycle by scheduler
-gpgpu_simt_core_sim_order                    1 # Select the simulation order of cores in a cluster (0=Fix, 1=Round-Robin)
-gpgpu_pipeline_widths        2,1,1,2,1,1,2 # Pipeline widths ID_OC_SP,ID_OC_SFU,ID_OC_MEM,OC_EX_SP,OC_EX_SFU,OC_EX_MEM,EX_WB
-gpgpu_num_sp_units                     2 # Number of SP units (default=1)
-gpgpu_num_sfu_units                    1 # Number of SF units (default=1)
-gpgpu_num_mem_units                    1 # Number if ldst units (default=1) WARNING: not hooked up to anything
-gpgpu_scheduler                      gto # Scheduler configuration: < lrr | gto | two_level_active > If two_level_active:<num_active_warps>:<inner_prioritization>:<outer_prioritization>For complete list of prioritization values see shader.h enum scheduler_prioritization_typeDefault: gto
-gpgpu_dram_scheduler                    1 # 0 = fifo, 1 = FR-FCFS (defaul)
-gpgpu_dram_partition_queues              8:8:8:8 # i2$:$2d:d2$:$2i
-l2_ideal                               0 # Use a ideal L2 cache that always hit
-gpgpu_cache:dl2     64:128:8,L:B:m:W:L,A:32:4,4:0,32 # unified banked L2 data cache config  {<nsets>:<bsize>:<assoc>,<rep>:<wr>:<alloc>:<wr_alloc>,<mshr>:<N>:<merge>,<mq>}
-gpgpu_cache:dl2_texture_only                    0 # L2 cache used for texture only
-gpgpu_n_mem                            6 # number of memory modules (e.g. memory controllers) in gpu
-gpgpu_n_sub_partition_per_mchannel                    2 # number of memory subpartition in each memory module
-gpgpu_n_mem_per_ctrlr                    2 # number of memory chips per memory controller
-gpgpu_memlatency_stat                   14 # track and display latency statistics 0x2 enables MC, 0x4 enables queue logs
-gpgpu_frfcfs_dram_sched_queue_size                   16 # 0 = unlimited (default); # entries per chip
-gpgpu_dram_return_queue_size                  116 # 0 = unlimited (default); # entries per chip
-gpgpu_dram_buswidth                    4 # default = 4 bytes (8 bytes per cycle at DDR)
-gpgpu_dram_burst_length                    8 # Burst length of each DRAM request (default = 4 data bus cycle)
-dram_data_command_freq_ratio                    4 # Frequency ratio between DRAM data bus and command bus (default = 2 times, i.e. DDR)
-gpgpu_dram_timing_opt nbk=16:CCD=2:RRD=6:RCD=12:RAS=28:RP=12:RC=40: CL=12:WL=4:CDLR=5:WR=12:nbkgrp=4:CCDL=3:RTPL=2 # DRAM timing parameters = {nbk:tCCD:tRRD:tRCD:tRAS:tRP:tRC:CL:WL:tCDLR:tWR:nbkgrp:tCCDL:tRTPL}
-rop_latency                          120 # ROP queue latency (default 85)
-dram_latency                         100 # DRAM latency (default 30)
-gpgpu_mem_addr_mapping dramid@8;00000000.00000000.00000000.00000000.0000RRRR.RRRRRRRR.BBBCCCCB.CCSSSSSS # mapping memory address to dram model {dramid@<start bit>;<memory address map>}
-gpgpu_mem_addr_test                    0 # run sweep test to check address mapping for aliased address
-gpgpu_mem_address_mask                    1 # 0 = old addressing mask, 1 = new addressing mask, 2 = new add. mask + flipped bank sel and chip sel bits
-gpuwattch_xml_file  gpuwattch_gtx480.xml # GPUWattch XML file
-power_simulation_enabled                    1 # Turn on power simulator (1=On, 0=Off)
-power_per_cycle_dump                    0 # Dump detailed power output each cycle
-power_trace_enabled                    0 # produce a file for the power trace (1=On, 0=Off)
-power_trace_zlevel                     6 # Compression level of the power trace output log (0=no comp, 9=highest)
-steady_power_levels_enabled                    0 # produce a file for the steady power levels (1=On, 0=Off)
-steady_state_definition                  8:4 # allowed deviation:number of samples
-gpgpu_max_cycle                        0 # terminates gpu simulation early (0 = no limit)
-gpgpu_max_insn                         0 # terminates gpu simulation early (0 = no limit)
-gpgpu_max_cta                          0 # terminates gpu simulation early (0 = no limit)
-gpgpu_runtime_stat                   500 # display runtime statistics such as dram utilization {<freq>:<flag>}
-liveness_message_freq                    1 # Minimum number of seconds between simulation liveness messages (0 = always print)
-gpgpu_flush_l1_cache                    0 # Flush L1 cache at the end of each kernel call
-gpgpu_flush_l2_cache                    0 # Flush L2 cache at the end of each kernel call
-gpgpu_deadlock_detect                    1 # Stop the simulation at deadlock (1=on (default), 0=off)
-gpgpu_ptx_instruction_classification                    0 # if enabled will classify ptx instruction types per kernel (Max 255 kernels now)
-gpgpu_ptx_sim_mode                     0 # Select between Performance (default) or Functional simulation (1)
-gpgpu_clock_domains 700.0:700.0:700.0:924.0 # Clock Domain Frequencies in MhZ {<Core Clock>:<ICNT Clock>:<L2 Clock>:<DRAM Clock>}
-gpgpu_max_concurrent_kernel                    8 # maximum kernels that can run concurrently on GPU
-gpgpu_cflog_interval                    0 # Interval between each snapshot in control flow logger
-visualizer_enabled                     0 # Turn on visualizer output (1=On, 0=Off)
-visualizer_outputfile                 NULL # Specifies the output log file for visualizer
-visualizer_zlevel                      6 # Compression level of the visualizer output log (0=no comp, 9=highest)
-trace_enabled                          0 # Turn on traces
-trace_components                    none # comma seperated list of traces to enable. Complete list found in trace_streams.tup. Default none
-trace_sampling_core                    0 # The core which is printed using CORE_DPRINTF. Default 0
-trace_sampling_memory_partition                   -1 # The memory partition which is printed using MEMPART_DPRINTF. Default -1 (i.e. all)
-enable_ptx_file_line_stats                    1 # Turn on PTX source line statistic profiling. (1 = On)
-ptx_line_stats_filename gpgpu_inst_stats.txt # Output file for PTX source line statistics.
-save_embedded_ptx                      0 # saves ptx files embedded in binary as <n>.ptx
-keep                                   0 # keep intermediate files created by GPGPU-Sim when interfacing with external programs
-gpgpu_ptx_save_converted_ptxplus                    0 # Saved converted ptxplus to a file
-ptx_opcode_latency_int         4,13,4,5,145 # Opcode latencies for integers <ADD,MAX,MUL,MAD,DIV>Default 1,1,19,25,145
-ptx_opcode_latency_fp          4,13,4,5,39 # Opcode latencies for single precision floating points <ADD,MAX,MUL,MAD,DIV>Default 1,1,1,1,30
-ptx_opcode_latency_dp         8,19,8,8,330 # Opcode latencies for double precision floating points <ADD,MAX,MUL,MAD,DIV>Default 8,8,8,8,335
-ptx_opcode_initiation_int            1,2,2,1,8 # Opcode initiation intervals for integers <ADD,MAX,MUL,MAD,DIV>Default 1,1,4,4,32
-ptx_opcode_initiation_fp            1,2,1,1,4 # Opcode initiation intervals for single precision floating points <ADD,MAX,MUL,MAD,DIV>Default 1,1,1,1,5
-ptx_opcode_initiation_dp         8,16,8,8,130 # Opcode initiation intervals for double precision floating points <ADD,MAX,MUL,MAD,DIV>Default 8,8,8,8,130
DRAM Timing Options:
nbk                                    16 # number of banks
CCD                                     2 # column to column delay
RRD                                     6 # minimal delay between activation of rows in different banks
RCD                                    12 # row to column delay
RAS                                    28 # time needed to activate row
RP                                     12 # time needed to precharge (deactivate) row
RC                                     40 # row cycle time
CDLR                                    5 # switching from write to read (changes tWTR)
WR                                     12 # last data-in to row precharge
CL                                     12 # CAS latency
WL                                      4 # Write latency
nbkgrp                                  4 # number of bank groups
CCDL                                    3 # column to column delay between accesses to different bank groups
RTPL                                    2 # read to precharge delay between accesses to different bank groups
Total number of memory sub partition = 12
addr_dec_mask[CHIP]  = 0000000000000000 	high:64 low:0
addr_dec_mask[BK]    = 000000000000e100 	high:16 low:8
addr_dec_mask[ROW]   = 000000000fff0000 	high:28 low:16
addr_dec_mask[COL]   = 0000000000001eff 	high:13 low:0
addr_dec_mask[BURST] = 000000000000003f 	high:6 low:0
sub_partition_id_mask = 0000000000000100
GPGPU-Sim uArch: clock freqs: 700000000.000000:700000000.000000:700000000.000000:924000000.000000
GPGPU-Sim uArch: clock periods: 0.00000000142857142857:0.00000000142857142857:0.00000000142857142857:0.00000000108225108225
*** Initializing Memory Statistics ***
GPGPU-Sim uArch: interconnect node map (shaderID+MemID to icntID)
GPGPU-Sim uArch: Memory nodes ID start from index: 15
GPGPU-Sim uArch:    0   1   2   3   4
GPGPU-Sim uArch:    5   6   7   8   9
GPGPU-Sim uArch:   10  11  12  13  14
GPGPU-Sim uArch:   15  16  17  18  19
GPGPU-Sim uArch:   20  21  22  23  24
GPGPU-Sim uArch:   25  26
GPGPU-Sim uArch: interconnect node reverse map (icntID to shaderID+MemID)
GPGPU-Sim uArch: Memory nodes start from ID: 15
GPGPU-Sim uArch:    0   1   2   3   4
GPGPU-Sim uArch:    5   6   7   8   9
GPGPU-Sim uArch:   10  11  12  13  14
GPGPU-Sim uArch:   15  16  17  18  19
GPGPU-Sim uArch:   20  21  22  23  24
GPGPU-Sim uArch:   25  26
7495b52638f213292d206e124b861c51  /home/gpgpu-sim/ispass2009-benchmarks/bin/release/CP
GPGPU-Sim uArch: performance model initialization complete.
GPGPU-Sim PTX: __cudaRegisterFatBinary, fat_cubin_handle = 1, filename=src/cuda_short/main.cu
self exe links to: /home/gpgpu-sim/ispass2009-benchmarks/bin/release/CP
Running md5sum using "md5sum /home/gpgpu-sim/ispass2009-benchmarks/bin/release/CP "
Running cuobjdump using "$CUDA_INSTALL_PATH/bin/cuobjdump -ptx -elf -sass /home/gpgpu-sim/ispass2009-benchmarks/bin/release/CP > _cuobjdump_complete_output_cfGxre"
Parsing file _cuobjdump_complete_output_cfGxre
######### cuobjdump parser ########
## Adding new section ELF
Adding arch: sm_10
Adding identifier: src/cuda_short/main.cu
## Adding new section PTX
Adding ptx filename: _cuobjdump_1.ptx
Adding arch: sm_10
Adding identifier: src/cuda_short/main.cu
## Adding new section ELF
Adding arch: sm_10
Adding identifier: src/cuda_short/cuenergy_pre8_coalesce.cu
## Adding new section PTX
Adding ptx filename: _cuobjdump_2.ptx
Adding arch: sm_10
Adding identifier: src/cuda_short/cuenergy_pre8_coalesce.cu
Done parsing!!!
GPGPU-Sim PTX: __cudaRegisterFatBinary, fat_cubin_handle = 2, filename=src/cuda_short/cuenergy_pre8_coalesce.cu
GPGPU-Sim PTX: __cudaRegisterFunction _Z7cenergyifPf : hostFun 0x0x401be5, fat_cubin_handle = 2
GPGPU-Sim PTX: allocating constant region for "atominfo" from 0x100 to 0xfb00 (global memory space) 1
GPGPU-Sim PTX: instruction assembly for function '_Z7cenergyifPf'...   done.
GPGPU-Sim PTX: finding reconvergence points for '_Z7cenergyifPf'...
GPGPU-Sim PTX: Finding dominators for '_Z7cenergyifPf'...
GPGPU-Sim PTX: Finding immediate dominators for '_Z7cenergyifPf'...
GPGPU-Sim PTX: Finding postdominators for '_Z7cenergyifPf'...
GPGPU-Sim PTX: Finding immediate postdominators for '_Z7cenergyifPf'...
GPGPU-Sim PTX: pre-decoding instructions for '_Z7cenergyifPf'...
GPGPU-Sim PTX: reconvergence points for _Z7cenergyifPf...
GPGPU-Sim PTX:  1 (potential) branch divergence @  PC=0x048 (_2.ptx:70) @%p1 bra $Lt_0_2306;
GPGPU-Sim PTX:    immediate post dominator      @  PC=0x1c0 (_2.ptx:126) cvt.u32.u16 %r20, %nctaid.x;
GPGPU-Sim PTX:  2 (potential) branch divergence @  PC=0x178 (_2.ptx:114) @%p2 bra $Lt_0_1794;
GPGPU-Sim PTX:    immediate post dominator      @  PC=0x180 (_2.ptx:115) bra.uni $Lt_0_1282;
GPGPU-Sim PTX:  3 (potential) branch divergence @  PC=0x180 (_2.ptx:115) bra.uni $Lt_0_1282;
GPGPU-Sim PTX:    immediate post dominator      @  PC=0x1c0 (_2.ptx:126) cvt.u32.u16 %r20, %nctaid.x;
GPGPU-Sim PTX: ... end of reconvergence points for _Z7cenergyifPf
GPGPU-Sim PTX: ... done pre-decoding instructions for '_Z7cenergyifPf'.
GPGPU-Sim PTX: finished parsing EMBEDDED .ptx file _2.ptx
Adding _cuobjdump_2.ptx with cubin handle 2
GPGPU-Sim PTX: extracting embedded .ptx to temporary file "_ptx_MVT5nA"
Running: cat _ptx_MVT5nA | sed 's/.version 1.5/.version 1.4/' | sed 's/, texmode_independent//' | sed 's/\(\.extern \.const\[1\] .b8 \w\+\)\[\]/\1\[1\]/' | sed 's/const\[.\]/const\[0\]/g' > _ptx2_NYqGkW
GPGPU-Sim PTX: generating ptxinfo using "$CUDA_INSTALL_PATH/bin/ptxas --gpu-name=sm_20 -v _ptx2_NYqGkW --output-file  /dev/null 2> _ptx_MVT5nAinfo"
GPGPU-Sim PTX: Kernel '_Z7cenergyifPf' : regs=15, lmem=0, smem=0, cmem=64048
GPGPU-Sim PTX: removing ptxinfo using "rm -f _ptx_MVT5nA _ptx2_NYqGkW _ptx_MVT5nAinfo"
GPGPU-Sim PTX: loading globals with explicit initializers... 
GPGPU-Sim PTX: finished loading globals (0 bytes total).
GPGPU-Sim PTX: loading constants with explicit initializers...  done.
GPGPU-Sim PTX: __cudaRegisterVar: hostVar = 0x616160; deviceAddress = atominfo; deviceName = atominfo
GPGPU-Sim PTX: __cudaRegisterVar: Registering const memory space of 64000 bytes
GPGPU-Sim PTX registering constant atominfo (64000 bytes) to name mapping
CUDA accelerated coulombic potential microbenchmark
Original version by John E. Stone <johns@ks.uiuc.edu>
This version maintained by Chris Rodrigues
GPGPU-Sim PTX: cudaMemcpyToSymbol: symbol = 0x616160
GPGPU-Sim PTX: starting gpgpu_ptx_sim_memcpy_symbol with hostVar 0x0x616160
GPGPU-Sim PTX: gpgpu_ptx_sim_memcpy_symbol: Found PTX symbol w/ hostVar=0x616160
GPGPU-Sim PTX: gpgpu_ptx_sim_memcpy_symbol: copying const memory 3200 bytes  to  symbol atominfo+0 @0x100 ...

GPGPU-Sim PTX: cudaLaunch for 0x0x401be5 (mode=performance simulation) on stream 0
GPGPU-Sim PTX: pushing kernel '_Z7cenergyifPf' to stream 0, gridDim= (8,32,1) blockDim = (16,8,1) 
kernel '_Z7cenergyifPf' transfer to GPU hardware scheduler
GPGPU-Sim uArch: Shader 1 bind to kernel 1 '_Z7cenergyifPf'
GPGPU-Sim uArch: CTA/core = 8, limited by: cta_limit
GPGPU-Sim uArch: core:  1, cta: 0 initialized @(1,0)
GPGPU-Sim uArch: Shader 2 bind to kernel 1 '_Z7cenergyifPf'
GPGPU-Sim uArch: core:  2, cta: 0 initialized @(1,0)
GPGPU-Sim uArch: Shader 3 bind to kernel 1 '_Z7cenergyifPf'
GPGPU-Sim uArch: core:  3, cta: 0 initialized @(1,0)
GPGPU-Sim uArch: Shader 4 bind to kernel 1 '_Z7cenergyifPf'
GPGPU-Sim uArch: core:  4, cta: 0 initialized @(1,0)
GPGPU-Sim uArch: Shader 5 bind to kernel 1 '_Z7cenergyifPf'
GPGPU-Sim uArch: core:  5, cta: 0 initialized @(1,0)
GPGPU-Sim uArch: Shader 6 bind to kernel 1 '_Z7cenergyifPf'
GPGPU-Sim uArch: core:  6, cta: 0 initialized @(1,0)
GPGPU-Sim uArch: Shader 7 bind to kernel 1 '_Z7cenergyifPf'
GPGPU-Sim uArch: core:  7, cta: 0 initialized @(1,0)
GPGPU-Sim uArch: Shader 8 bind to kernel 1 '_Z7cenergyifPf'
GPGPU-Sim uArch: core:  8, cta: 0 initialized @(1,0)
GPGPU-Sim uArch: Shader 9 bind to kernel 1 '_Z7cenergyifPf'
GPGPU-Sim uArch: core:  9, cta: 0 initialized @(1,0)
GPGPU-Sim uArch: Shader 10 bind to kernel 1 '_Z7cenergyifPf'
GPGPU-Sim uArch: core: 10, cta: 0 initialized @(1,0)
GPGPU-Sim uArch: Shader 11 bind to kernel 1 '_Z7cenergyifPf'
GPGPU-Sim uArch: core: 11, cta: 0 initialized @(1,0)
GPGPU-Sim uArch: Shader 12 bind to kernel 1 '_Z7cenergyifPf'
GPGPU-Sim uArch: core: 12, cta: 0 initialized @(1,0)
GPGPU-Sim uArch: Shader 13 bind to kernel 1 '_Z7cenergyifPf'
GPGPU-Sim uArch: core: 13, cta: 0 initialized @(1,0)
GPGPU-Sim uArch: Shader 14 bind to kernel 1 '_Z7cenergyifPf'
GPGPU-Sim uArch: core: 14, cta: 0 initialized @(1,0)
GPGPU-Sim uArch: Shader 0 bind to kernel 1 '_Z7cenergyifPf'
GPGPU-Sim uArch: core:  0, cta: 0 initialized @(1,0)
GPGPU-Sim uArch: core:  1, cta: 1 initialized @(2,0)
GPGPU-Sim uArch: core:  2, cta: 1 initialized @(2,0)
GPGPU-Sim uArch: core:  3, cta: 1 initialized @(2,0)
GPGPU-Sim uArch: core:  4, cta: 1 initialized @(2,0)
GPGPU-Sim uArch: core:  5, cta: 1 initialized @(2,0)
GPGPU-Sim uArch: core:  6, cta: 1 initialized @(2,0)
GPGPU-Sim uArch: core:  7, cta: 1 initialized @(2,0)
GPGPU-Sim uArch: core:  8, cta: 1 initialized @(2,0)
GPGPU-Sim uArch: core:  9, cta: 1 initialized @(2,0)
GPGPU-Sim uArch: core: 10, cta: 1 initialized @(2,0)
GPGPU-Sim uArch: core: 11, cta: 1 initialized @(2,0)
GPGPU-Sim uArch: core: 12, cta: 1 initialized @(2,0)
GPGPU-Sim uArch: core: 13, cta: 1 initialized @(2,0)
GPGPU-Sim uArch: core: 14, cta: 1 initialized @(2,0)
GPGPU-Sim uArch: core:  0, cta: 1 initialized @(2,0)
GPGPU-Sim uArch: core:  1, cta: 2 initialized @(3,0)
GPGPU-Sim uArch: core:  2, cta: 2 initialized @(3,0)
GPGPU-Sim uArch: core:  3, cta: 2 initialized @(3,0)
GPGPU-Sim uArch: core:  4, cta: 2 initialized @(3,0)
GPGPU-Sim uArch: core:  5, cta: 2 initialized @(3,0)
GPGPU-Sim uArch: core:  6, cta: 2 initialized @(3,0)
GPGPU-Sim uArch: core:  7, cta: 2 initialized @(3,0)
GPGPU-Sim uArch: core:  8, cta: 2 initialized @(3,0)
GPGPU-Sim uArch: core:  9, cta: 2 initialized @(3,0)
GPGPU-Sim uArch: core: 10, cta: 2 initialized @(3,0)
GPGPU-Sim uArch: core: 11, cta: 2 initialized @(3,0)
GPGPU-Sim uArch: core: 12, cta: 2 initialized @(3,0)
GPGPU-Sim uArch: core: 13, cta: 2 initialized @(3,0)
GPGPU-Sim uArch: core: 14, cta: 2 initialized @(3,0)
GPGPU-Sim uArch: core:  0, cta: 2 initialized @(3,0)
GPGPU-Sim uArch: core:  1, cta: 3 initialized @(4,0)
GPGPU-Sim uArch: core:  2, cta: 3 initialized @(4,0)
GPGPU-Sim uArch: core:  3, cta: 3 initialized @(4,0)
GPGPU-Sim uArch: core:  4, cta: 3 initialized @(4,0)
GPGPU-Sim uArch: core:  5, cta: 3 initialized @(4,0)
GPGPU-Sim uArch: core:  6, cta: 3 initialized @(4,0)
GPGPU-Sim uArch: core:  7, cta: 3 initialized @(4,0)
GPGPU-Sim uArch: core:  8, cta: 3 initialized @(4,0)
GPGPU-Sim uArch: core:  9, cta: 3 initialized @(4,0)
GPGPU-Sim uArch: core: 10, cta: 3 initialized @(4,0)
GPGPU-Sim uArch: core: 11, cta: 3 initialized @(4,0)
GPGPU-Sim uArch: core: 12, cta: 3 initialized @(4,0)
GPGPU-Sim uArch: core: 13, cta: 3 initialized @(4,0)
GPGPU-Sim uArch: core: 14, cta: 3 initialized @(4,0)
GPGPU-Sim uArch: core:  0, cta: 3 initialized @(4,0)
GPGPU-Sim uArch: core:  1, cta: 4 initialized @(5,0)
GPGPU-Sim uArch: core:  2, cta: 4 initialized @(5,0)
GPGPU-Sim uArch: core:  3, cta: 4 initialized @(5,0)
GPGPU-Sim uArch: core:  4, cta: 4 initialized @(5,0)
GPGPU-Sim uArch: core:  5, cta: 4 initialized @(5,0)
GPGPU-Sim uArch: core:  6, cta: 4 initialized @(5,0)
GPGPU-Sim uArch: core:  7, cta: 4 initialized @(5,0)
GPGPU-Sim uArch: core:  8, cta: 4 initialized @(5,0)
GPGPU-Sim uArch: core:  9, cta: 4 initialized @(5,0)
GPGPU-Sim uArch: core: 10, cta: 4 initialized @(5,0)
GPGPU-Sim uArch: core: 11, cta: 4 initialized @(5,0)
GPGPU-Sim uArch: core: 12, cta: 4 initialized @(5,0)
GPGPU-Sim uArch: core: 13, cta: 4 initialized @(5,0)
GPGPU-Sim uArch: core: 14, cta: 4 initialized @(5,0)
GPGPU-Sim uArch: core:  0, cta: 4 initialized @(5,0)
GPGPU-Sim uArch: core:  1, cta: 5 initialized @(6,0)
GPGPU-Sim uArch: core:  2, cta: 5 initialized @(6,0)
GPGPU-Sim uArch: core:  3, cta: 5 initialized @(6,0)
GPGPU-Sim uArch: core:  4, cta: 5 initialized @(6,0)
GPGPU-Sim uArch: core:  5, cta: 5 initialized @(6,0)
GPGPU-Sim uArch: core:  6, cta: 5 initialized @(6,0)
GPGPU-Sim uArch: core:  7, cta: 5 initialized @(6,0)
GPGPU-Sim uArch: core:  8, cta: 5 initialized @(6,0)
GPGPU-Sim uArch: core:  9, cta: 5 initialized @(6,0)
GPGPU-Sim uArch: core: 10, cta: 5 initialized @(6,0)
GPGPU-Sim uArch: core: 11, cta: 5 initialized @(6,0)
GPGPU-Sim uArch: core: 12, cta: 5 initialized @(6,0)
GPGPU-Sim uArch: core: 13, cta: 5 initialized @(6,0)
GPGPU-Sim uArch: core: 14, cta: 5 initialized @(6,0)
GPGPU-Sim uArch: core:  0, cta: 5 initialized @(6,0)
GPGPU-Sim uArch: core:  1, cta: 6 initialized @(7,0)
GPGPU-Sim uArch: core:  2, cta: 6 initialized @(7,0)
GPGPU-Sim uArch: core:  3, cta: 6 initialized @(7,0)
GPGPU-Sim uArch: core:  4, cta: 6 initialized @(7,0)
GPGPU-Sim uArch: core:  5, cta: 6 initialized @(7,0)
GPGPU-Sim uArch: core:  6, cta: 6 initialized @(7,0)
GPGPU-Sim uArch: core:  7, cta: 6 initialized @(7,0)
GPGPU-Sim uArch: core:  8, cta: 6 initialized @(7,0)
GPGPU-Sim uArch: core:  9, cta: 6 initialized @(7,0)
GPGPU-Sim uArch: core: 10, cta: 6 initialized @(7,0)
GPGPU-Sim uArch: core: 11, cta: 6 initialized @(7,0)
GPGPU-Sim uArch: core: 12, cta: 6 initialized @(7,0)
GPGPU-Sim uArch: core: 13, cta: 6 initialized @(7,0)
GPGPU-Sim uArch: core: 14, cta: 6 initialized @(7,0)
GPGPU-Sim uArch: core:  0, cta: 6 initialized @(7,0)
GPGPU-Sim uArch: core:  1, cta: 7 initialized @(8,0)
GPGPU-Sim uArch: core:  2, cta: 7 initialized @(8,0)
GPGPU-Sim uArch: core:  3, cta: 7 initialized @(8,0)
GPGPU-Sim uArch: core:  4, cta: 7 initialized @(8,0)
GPGPU-Sim uArch: core:  5, cta: 7 initialized @(8,0)
GPGPU-Sim uArch: core:  6, cta: 7 initialized @(8,0)
GPGPU-Sim uArch: core:  7, cta: 7 initialized @(8,0)
GPGPU-Sim uArch: core:  8, cta: 7 initialized @(8,0)
GPGPU-Sim uArch: core:  9, cta: 7 initialized @(8,0)
GPGPU-Sim uArch: core: 10, cta: 7 initialized @(8,0)
GPGPU-Sim uArch: core: 11, cta: 7 initialized @(8,0)
GPGPU-Sim uArch: core: 12, cta: 7 initialized @(8,0)
GPGPU-Sim uArch: core: 13, cta: 7 initialized @(8,0)
GPGPU-Sim uArch: core: 14, cta: 7 initialized @(8,0)
GPGPU-Sim uArch: core:  0, cta: 7 initialized @(8,0)
GPGPU-Sim PTX: 100000 instructions simulated : ctaid=(5,1,0) tid=(15,3,0)
GPGPU-Sim uArch: cycles simulated: 500  inst.: 107520 (ipc=215.0) sim_rate=107520 (inst/sec) elapsed = 0:0:00:01 / Fri Jan 11 07:41:12 2019
GPGPU-Sim PTX: 200000 instructions simulated : ctaid=(6,10,0) tid=(15,5,0)
GPGPU-Sim uArch: cycles simulated: 1000  inst.: 238240 (ipc=238.2) sim_rate=119120 (inst/sec) elapsed = 0:0:00:02 / Fri Jan 11 07:41:13 2019
GPGPU-Sim PTX: 300000 instructions simulated : ctaid=(1,2,0) tid=(15,3,0)
GPGPU-Sim PTX: 400000 instructions simulated : ctaid=(2,1,0) tid=(15,7,0)
GPGPU-Sim uArch: cycles simulated: 1500  inst.: 454912 (ipc=303.3) sim_rate=113728 (inst/sec) elapsed = 0:0:00:04 / Fri Jan 11 07:41:15 2019
GPGPU-Sim PTX: 500000 instructions simulated : ctaid=(4,12,0) tid=(15,1,0)
GPGPU-Sim PTX: 600000 instructions simulated : ctaid=(3,13,0) tid=(15,1,0)
GPGPU-Sim PTX: 700000 instructions simulated : ctaid=(1,1,0) tid=(15,5,0)
GPGPU-Sim uArch: cycles simulated: 2000  inst.: 687360 (ipc=343.7) sim_rate=137472 (inst/sec) elapsed = 0:0:00:05 / Fri Jan 11 07:41:16 2019
GPGPU-Sim PTX: 800000 instructions simulated : ctaid=(0,8,0) tid=(15,7,0)
GPGPU-Sim PTX: 900000 instructions simulated : ctaid=(6,4,0) tid=(15,5,0)
GPGPU-Sim PTX: 1000000 instructions simulated : ctaid=(2,6,0) tid=(15,3,0)
GPGPU-Sim uArch: cycles simulated: 2500  inst.: 1009856 (ipc=403.9) sim_rate=168309 (inst/sec) elapsed = 0:0:00:06 / Fri Jan 11 07:41:17 2019
GPGPU-Sim PTX: 1100000 instructions simulated : ctaid=(6,3,0) tid=(15,3,0)
GPGPU-Sim PTX: 1200000 instructions simulated : ctaid=(1,9,0) tid=(15,7,0)
GPGPU-Sim PTX: 1300000 instructions simulated : ctaid=(2,7,0) tid=(15,5,0)
GPGPU-Sim uArch: cycles simulated: 3000  inst.: 1284672 (ipc=428.2) sim_rate=160584 (inst/sec) elapsed = 0:0:00:08 / Fri Jan 11 07:41:19 2019
GPGPU-Sim PTX: 1400000 instructions simulated : ctaid=(7,0,0) tid=(15,3,0)
GPGPU-Sim PTX: 1500000 instructions simulated : ctaid=(4,1,0) tid=(15,5,0)
GPGPU-Sim PTX: 1600000 instructions simulated : ctaid=(1,9,0) tid=(15,7,0)
GPGPU-Sim uArch: cycles simulated: 3500  inst.: 1579296 (ipc=451.2) sim_rate=175477 (inst/sec) elapsed = 0:0:00:09 / Fri Jan 11 07:41:20 2019
GPGPU-Sim PTX: 1700000 instructions simulated : ctaid=(5,10,0) tid=(15,5,0)
GPGPU-Sim PTX: 1800000 instructions simulated : ctaid=(7,3,0) tid=(15,1,0)
GPGPU-Sim uArch: cycles simulated: 4000  inst.: 1868288 (ipc=467.1) sim_rate=186828 (inst/sec) elapsed = 0:0:00:10 / Fri Jan 11 07:41:21 2019
GPGPU-Sim PTX: 1900000 instructions simulated : ctaid=(7,6,0) tid=(15,1,0)
GPGPU-Sim PTX: 2000000 instructions simulated : ctaid=(6,6,0) tid=(15,1,0)
GPGPU-Sim PTX: 2100000 instructions simulated : ctaid=(6,3,0) tid=(15,3,0)
GPGPU-Sim uArch: cycles simulated: 4500  inst.: 2159648 (ipc=479.9) sim_rate=179970 (inst/sec) elapsed = 0:0:00:12 / Fri Jan 11 07:41:23 2019
GPGPU-Sim PTX: 2200000 instructions simulated : ctaid=(1,9,0) tid=(15,1,0)
GPGPU-Sim PTX: 2300000 instructions simulated : ctaid=(3,7,0) tid=(15,5,0)
GPGPU-Sim PTX: 2400000 instructions simulated : ctaid=(2,2,0) tid=(15,3,0)
GPGPU-Sim uArch: cycles simulated: 5000  inst.: 2424960 (ipc=485.0) sim_rate=186535 (inst/sec) elapsed = 0:0:00:13 / Fri Jan 11 07:41:24 2019
GPGPU-Sim PTX: 2500000 instructions simulated : ctaid=(2,5,0) tid=(15,5,0)
GPGPU-Sim PTX: 2600000 instructions simulated : ctaid=(3,3,0) tid=(15,1,0)
GPGPU-Sim PTX: 2700000 instructions simulated : ctaid=(5,8,0) tid=(15,3,0)
GPGPU-Sim uArch: cycles simulated: 5500  inst.: 2714912 (ipc=493.6) sim_rate=193922 (inst/sec) elapsed = 0:0:00:14 / Fri Jan 11 07:41:25 2019
GPGPU-Sim PTX: 2800000 instructions simulated : ctaid=(2,12,0) tid=(15,1,0)
GPGPU-Sim PTX: 2900000 instructions simulated : ctaid=(7,11,0) tid=(15,5,0)
GPGPU-Sim PTX: 3000000 instructions simulated : ctaid=(6,3,0) tid=(15,1,0)
GPGPU-Sim uArch: cycles simulated: 6000  inst.: 2996000 (ipc=499.3) sim_rate=187250 (inst/sec) elapsed = 0:0:00:16 / Fri Jan 11 07:41:27 2019
GPGPU-Sim PTX: 3100000 instructions simulated : ctaid=(5,6,0) tid=(15,5,0)
GPGPU-Sim PTX: 3200000 instructions simulated : ctaid=(7,6,0) tid=(15,5,0)
GPGPU-Sim PTX: 3300000 instructions simulated : ctaid=(1,8,0) tid=(15,1,0)
GPGPU-Sim uArch: cycles simulated: 6500  inst.: 3286336 (ipc=505.6) sim_rate=193313 (inst/sec) elapsed = 0:0:00:17 / Fri Jan 11 07:41:28 2019
GPGPU-Sim PTX: 3400000 instructions simulated : ctaid=(5,0,0) tid=(15,7,0)
GPGPU-Sim PTX: 3500000 instructions simulated : ctaid=(4,2,0) tid=(15,1,0)
GPGPU-Sim uArch: cycles simulated: 7000  inst.: 3553152 (ipc=507.6) sim_rate=197397 (inst/sec) elapsed = 0:0:00:18 / Fri Jan 11 07:41:29 2019
GPGPU-Sim PTX: 3600000 instructions simulated : ctaid=(0,5,0) tid=(15,7,0)
GPGPU-Sim PTX: 3700000 instructions simulated : ctaid=(4,11,0) tid=(15,1,0)
GPGPU-Sim PTX: 3800000 instructions simulated : ctaid=(6,1,0) tid=(15,1,0)
GPGPU-Sim uArch: cycles simulated: 7500  inst.: 3860736 (ipc=514.8) sim_rate=193036 (inst/sec) elapsed = 0:0:00:20 / Fri Jan 11 07:41:31 2019
GPGPU-Sim PTX: 3900000 instructions simulated : ctaid=(5,10,0) tid=(15,3,0)
GPGPU-Sim PTX: 4000000 instructions simulated : ctaid=(3,8,0) tid=(15,5,0)
GPGPU-Sim PTX: 4100000 instructions simulated : ctaid=(0,9,0) tid=(15,1,0)
GPGPU-Sim uArch: cycles simulated: 8000  inst.: 4141536 (ipc=517.7) sim_rate=197216 (inst/sec) elapsed = 0:0:00:21 / Fri Jan 11 07:41:32 2019
GPGPU-Sim PTX: 4200000 instructions simulated : ctaid=(6,5,0) tid=(15,1,0)
GPGPU-Sim PTX: 4300000 instructions simulated : ctaid=(3,0,0) tid=(15,5,0)
GPGPU-Sim PTX: 4400000 instructions simulated : ctaid=(7,7,0) tid=(15,7,0)
GPGPU-Sim uArch: cycles simulated: 8500  inst.: 4439296 (ipc=522.3) sim_rate=201786 (inst/sec) elapsed = 0:0:00:22 / Fri Jan 11 07:41:33 2019
GPGPU-Sim PTX: 4500000 instructions simulated : ctaid=(6,9,0) tid=(15,5,0)
GPGPU-Sim PTX: 4600000 instructions simulated : ctaid=(7,3,0) tid=(15,7,0)
GPGPU-Sim PTX: 4700000 instructions simulated : ctaid=(1,0,0) tid=(15,1,0)
GPGPU-Sim uArch: cycles simulated: 9000  inst.: 4705632 (ipc=522.8) sim_rate=196068 (inst/sec) elapsed = 0:0:00:24 / Fri Jan 11 07:41:35 2019
GPGPU-Sim PTX: 4800000 instructions simulated : ctaid=(5,8,0) tid=(15,5,0)
GPGPU-Sim PTX: 4900000 instructions simulated : ctaid=(7,3,0) tid=(15,5,0)
GPGPU-Sim PTX: 5000000 instructions simulated : ctaid=(3,0,0) tid=(15,3,0)
GPGPU-Sim uArch: cycles simulated: 9500  inst.: 4992512 (ipc=525.5) sim_rate=199700 (inst/sec) elapsed = 0:0:00:25 / Fri Jan 11 07:41:36 2019
GPGPU-Sim PTX: 5100000 instructions simulated : ctaid=(7,12,0) tid=(15,1,0)
GPGPU-Sim PTX: 5200000 instructions simulated : ctaid=(1,8,0) tid=(15,5,0)
GPGPU-Sim PTX: 5300000 instructions simulated : ctaid=(0,7,0) tid=(15,5,0)
GPGPU-Sim uArch: cycles simulated: 10000  inst.: 5276160 (ipc=527.6) sim_rate=202929 (inst/sec) elapsed = 0:0:00:26 / Fri Jan 11 07:41:37 2019
GPGPU-Sim PTX: 5400000 instructions simulated : ctaid=(7,11,0) tid=(15,1,0)
GPGPU-Sim PTX: 5500000 instructions simulated : ctaid=(6,0,0) tid=(15,5,0)
GPGPU-Sim uArch: cycles simulated: 10500  inst.: 5572512 (ipc=530.7) sim_rate=199018 (inst/sec) elapsed = 0:0:00:28 / Fri Jan 11 07:41:39 2019
GPGPU-Sim PTX: 5600000 instructions simulated : ctaid=(4,4,0) tid=(15,7,0)
GPGPU-Sim PTX: 5700000 instructions simulated : ctaid=(7,7,0) tid=(15,1,0)
GPGPU-Sim PTX: 5800000 instructions simulated : ctaid=(3,0,0) tid=(15,3,0)
GPGPU-Sim uArch: cycles simulated: 11000  inst.: 5837696 (ipc=530.7) sim_rate=201299 (inst/sec) elapsed = 0:0:00:29 / Fri Jan 11 07:41:40 2019
GPGPU-Sim PTX: 5900000 instructions simulated : ctaid=(5,7,0) tid=(15,1,0)
GPGPU-Sim PTX: 6000000 instructions simulated : ctaid=(2,12,0) tid=(15,3,0)
GPGPU-Sim PTX: 6100000 instructions simulated : ctaid=(7,6,0) tid=(15,5,0)
GPGPU-Sim uArch: cycles simulated: 11500  inst.: 6143200 (ipc=534.2) sim_rate=204773 (inst/sec) elapsed = 0:0:00:30 / Fri Jan 11 07:41:41 2019
GPGPU-Sim PTX: 6200000 instructions simulated : ctaid=(2,2,0) tid=(15,3,0)
GPGPU-Sim PTX: 6300000 instructions simulated : ctaid=(1,5,0) tid=(15,5,0)
GPGPU-Sim PTX: 6400000 instructions simulated : ctaid=(2,2,0) tid=(15,1,0)
GPGPU-Sim uArch: cycles simulated: 12000  inst.: 6425632 (ipc=535.5) sim_rate=207278 (inst/sec) elapsed = 0:0:00:31 / Fri Jan 11 07:41:42 2019
GPGPU-Sim PTX: 6500000 instructions simulated : ctaid=(2,1,0) tid=(15,1,0)
GPGPU-Sim PTX: 6600000 instructions simulated : ctaid=(5,1,0) tid=(15,7,0)
GPGPU-Sim PTX: 6700000 instructions simulated : ctaid=(7,12,0) tid=(15,3,0)
GPGPU-Sim uArch: cycles simulated: 12500  inst.: 6713184 (ipc=537.1) sim_rate=203429 (inst/sec) elapsed = 0:0:00:33 / Fri Jan 11 07:41:44 2019
GPGPU-Sim PTX: 6800000 instructions simulated : ctaid=(4,0,0) tid=(15,7,0)
GPGPU-Sim PTX: 6900000 instructions simulated : ctaid=(4,8,0) tid=(15,5,0)
GPGPU-Sim PTX: 7000000 instructions simulated : ctaid=(5,3,0) tid=(15,7,0)
GPGPU-Sim uArch: cycles simulated: 13000  inst.: 6988384 (ipc=537.6) sim_rate=205540 (inst/sec) elapsed = 0:0:00:34 / Fri Jan 11 07:41:45 2019
GPGPU-Sim PTX: 7100000 instructions simulated : ctaid=(5,0,0) tid=(15,5,0)
GPGPU-Sim PTX: 7200000 instructions simulated : ctaid=(3,2,0) tid=(15,5,0)
GPGPU-Sim PTX: 7300000 instructions simulated : ctaid=(3,10,0) tid=(15,3,0)
GPGPU-Sim uArch: cycles simulated: 13500  inst.: 7278944 (ipc=539.2) sim_rate=207969 (inst/sec) elapsed = 0:0:00:35 / Fri Jan 11 07:41:46 2019
GPGPU-Sim PTX: 7400000 instructions simulated : ctaid=(2,4,0) tid=(15,1,0)
GPGPU-Sim PTX: 7500000 instructions simulated : ctaid=(0,1,0) tid=(15,3,0)
GPGPU-Sim uArch: cycles simulated: 14000  inst.: 7558624 (ipc=539.9) sim_rate=204287 (inst/sec) elapsed = 0:0:00:37 / Fri Jan 11 07:41:48 2019
GPGPU-Sim PTX: 7600000 instructions simulated : ctaid=(0,3,0) tid=(15,5,0)
GPGPU-Sim PTX: 7700000 instructions simulated : ctaid=(5,10,0) tid=(15,7,0)
GPGPU-Sim PTX: 7800000 instructions simulated : ctaid=(2,6,0) tid=(15,1,0)
GPGPU-Sim uArch: cycles simulated: 14500  inst.: 7849120 (ipc=541.3) sim_rate=206555 (inst/sec) elapsed = 0:0:00:38 / Fri Jan 11 07:41:49 2019
GPGPU-Sim PTX: 7900000 instructions simulated : ctaid=(7,10,0) tid=(15,1,0)
GPGPU-Sim PTX: 8000000 instructions simulated : ctaid=(3,6,0) tid=(15,7,0)
GPGPU-Sim PTX: 8100000 instructions simulated : ctaid=(0,4,0) tid=(15,1,0)
GPGPU-Sim uArch: cycles simulated: 15000  inst.: 8114240 (ipc=540.9) sim_rate=208057 (inst/sec) elapsed = 0:0:00:39 / Fri Jan 11 07:41:50 2019
GPGPU-Sim PTX: 8200000 instructions simulated : ctaid=(1,10,0) tid=(15,1,0)
GPGPU-Sim PTX: 8300000 instructions simulated : ctaid=(2,10,0) tid=(15,3,0)
GPGPU-Sim PTX: 8400000 instructions simulated : ctaid=(6,2,0) tid=(15,5,0)
GPGPU-Sim uArch: cycles simulated: 15500  inst.: 8412704 (ipc=542.8) sim_rate=205187 (inst/sec) elapsed = 0:0:00:41 / Fri Jan 11 07:41:52 2019
GPGPU-Sim PTX: 8500000 instructions simulated : ctaid=(0,8,0) tid=(15,7,0)
GPGPU-Sim PTX: 8600000 instructions simulated : ctaid=(7,5,0) tid=(15,5,0)
GPGPU-Sim PTX: 8700000 instructions simulated : ctaid=(1,7,0) tid=(15,5,0)
GPGPU-Sim uArch: cycles simulated: 16000  inst.: 8696288 (ipc=543.5) sim_rate=207054 (inst/sec) elapsed = 0:0:00:42 / Fri Jan 11 07:41:53 2019
GPGPU-Sim PTX: 8800000 instructions simulated : ctaid=(6,3,0) tid=(15,3,0)
GPGPU-Sim PTX: 8900000 instructions simulated : ctaid=(7,7,0) tid=(15,7,0)
GPGPU-Sim PTX: 9000000 instructions simulated : ctaid=(4,8,0) tid=(15,3,0)
GPGPU-Sim uArch: cycles simulated: 16500  inst.: 8991424 (ipc=544.9) sim_rate=209102 (inst/sec) elapsed = 0:0:00:43 / Fri Jan 11 07:41:54 2019
GPGPU-Sim PTX: 9100000 instructions simulated : ctaid=(2,3,0) tid=(15,7,0)
GPGPU-Sim PTX: 9200000 instructions simulated : ctaid=(6,9,0) tid=(15,5,0)
GPGPU-Sim uArch: cycles simulated: 17000  inst.: 9266944 (ipc=545.1) sim_rate=210612 (inst/sec) elapsed = 0:0:00:44 / Fri Jan 11 07:41:55 2019
GPGPU-Sim PTX: 9300000 instructions simulated : ctaid=(1,3,0) tid=(15,1,0)
GPGPU-Sim PTX: 9400000 instructions simulated : ctaid=(1,10,0) tid=(15,1,0)
GPGPU-Sim PTX: 9500000 instructions simulated : ctaid=(4,3,0) tid=(15,1,0)
GPGPU-Sim uArch: cycles simulated: 17500  inst.: 9558656 (ipc=546.2) sim_rate=207796 (inst/sec) elapsed = 0:0:00:46 / Fri Jan 11 07:41:57 2019
GPGPU-Sim PTX: 9600000 instructions simulated : ctaid=(4,10,0) tid=(15,1,0)
GPGPU-Sim PTX: 9700000 instructions simulated : ctaid=(4,9,0) tid=(15,1,0)
GPGPU-Sim PTX: 9800000 instructions simulated : ctaid=(6,5,0) tid=(15,3,0)
GPGPU-Sim uArch: cycles simulated: 18000  inst.: 9852128 (ipc=547.3) sim_rate=209619 (inst/sec) elapsed = 0:0:00:47 / Fri Jan 11 07:41:58 2019
GPGPU-Sim PTX: 9900000 instructions simulated : ctaid=(4,8,0) tid=(15,1,0)
GPGPU-Sim PTX: 10000000 instructions simulated : ctaid=(7,5,0) tid=(15,5,0)
GPGPU-Sim PTX: 10100000 instructions simulated : ctaid=(4,4,0) tid=(15,1,0)
GPGPU-Sim uArch: cycles simulated: 18500  inst.: 10121536 (ipc=547.1) sim_rate=210865 (inst/sec) elapsed = 0:0:00:48 / Fri Jan 11 07:41:59 2019
GPGPU-Sim PTX: 10200000 instructions simulated : ctaid=(1,10,0) tid=(15,3,0)
GPGPU-Sim PTX: 10300000 instructions simulated : ctaid=(7,4,0) tid=(15,1,0)
GPGPU-Sim PTX: 10400000 instructions simulated : ctaid=(6,0,0) tid=(15,1,0)
GPGPU-Sim uArch: cycles simulated: 19000  inst.: 10402784 (ipc=547.5) sim_rate=208055 (inst/sec) elapsed = 0:0:00:50 / Fri Jan 11 07:42:01 2019
GPGPU-Sim PTX: 10500000 instructions simulated : ctaid=(7,2,0) tid=(15,1,0)
GPGPU-Sim PTX: 10600000 instructions simulated : ctaid=(5,1,0) tid=(15,1,0)
GPGPU-Sim PTX: 10700000 instructions simulated : ctaid=(3,10,0) tid=(15,1,0)
GPGPU-Sim uArch: cycles simulated: 19500  inst.: 10697472 (ipc=548.6) sim_rate=209754 (inst/sec) elapsed = 0:0:00:51 / Fri Jan 11 07:42:02 2019
GPGPU-Sim PTX: 10800000 instructions simulated : ctaid=(3,3,0) tid=(15,3,0)
GPGPU-Sim PTX: 10900000 instructions simulated : ctaid=(0,0,0) tid=(15,7,0)
GPGPU-Sim PTX: 11000000 instructions simulated : ctaid=(6,0,0) tid=(15,5,0)
GPGPU-Sim uArch: cycles simulated: 20000  inst.: 10980032 (ipc=549.0) sim_rate=211154 (inst/sec) elapsed = 0:0:00:52 / Fri Jan 11 07:42:03 2019
GPGPU-Sim PTX: 11100000 instructions simulated : ctaid=(2,6,0) tid=(15,5,0)
GPGPU-Sim PTX: 11200000 instructions simulated : ctaid=(1,6,0) tid=(15,1,0)
GPGPU-Sim uArch: cycles simulated: 20500  inst.: 11253568 (ipc=549.0) sim_rate=208399 (inst/sec) elapsed = 0:0:00:54 / Fri Jan 11 07:42:05 2019
GPGPU-Sim PTX: 11300000 instructions simulated : ctaid=(5,0,0) tid=(15,1,0)
GPGPU-Sim PTX: 11400000 instructions simulated : ctaid=(2,3,0) tid=(15,5,0)
GPGPU-Sim PTX: 11500000 instructions simulated : ctaid=(7,0,0) tid=(15,7,0)
GPGPU-Sim uArch: cycles simulated: 21000  inst.: 11554656 (ipc=550.2) sim_rate=210084 (inst/sec) elapsed = 0:0:00:55 / Fri Jan 11 07:42:06 2019
GPGPU-Sim PTX: 11600000 instructions simulated : ctaid=(5,0,0) tid=(15,1,0)
GPGPU-Sim PTX: 11700000 instructions simulated : ctaid=(4,14,0) tid=(15,1,0)
GPGPU-Sim PTX: 11800000 instructions simulated : ctaid=(0,0,0) tid=(15,5,0)
GPGPU-Sim uArch: cycles simulated: 21500  inst.: 11837952 (ipc=550.6) sim_rate=211392 (inst/sec) elapsed = 0:0:00:56 / Fri Jan 11 07:42:07 2019
GPGPU-Sim PTX: 11900000 instructions simulated : ctaid=(1,7,0) tid=(15,5,0)
GPGPU-Sim PTX: 12000000 instructions simulated : ctaid=(7,3,0) tid=(15,1,0)
GPGPU-Sim PTX: 12100000 instructions simulated : ctaid=(5,12,0) tid=(15,1,0)
GPGPU-Sim uArch: cycles simulated: 22000  inst.: 12125440 (ipc=551.2) sim_rate=209059 (inst/sec) elapsed = 0:0:00:58 / Fri Jan 11 07:42:09 2019
GPGPU-Sim PTX: 12200000 instructions simulated : ctaid=(3,2,0) tid=(15,5,0)
GPGPU-Sim PTX: 12300000 instructions simulated : ctaid=(4,9,0) tid=(15,3,0)
GPGPU-Sim PTX: 12400000 instructions simulated : ctaid=(1,5,0) tid=(15,1,0)
GPGPU-Sim uArch: cycles simulated: 22500  inst.: 12406592 (ipc=551.4) sim_rate=210281 (inst/sec) elapsed = 0:0:00:59 / Fri Jan 11 07:42:10 2019
GPGPU-Sim PTX: 12500000 instructions simulated : ctaid=(5,0,0) tid=(15,5,0)
GPGPU-Sim PTX: 12600000 instructions simulated : ctaid=(1,1,0) tid=(15,1,0)
GPGPU-Sim PTX: 12700000 instructions simulated : ctaid=(7,11,0) tid=(15,1,0)
GPGPU-Sim uArch: cycles simulated: 23000  inst.: 12680096 (ipc=551.3) sim_rate=211334 (inst/sec) elapsed = 0:0:01:00 / Fri Jan 11 07:42:11 2019
GPGPU-Sim PTX: 12800000 instructions simulated : ctaid=(6,8,0) tid=(15,3,0)
GPGPU-Sim PTX: 12900000 instructions simulated : ctaid=(6,12,0) tid=(15,5,0)
GPGPU-Sim uArch: cycles simulated: 23500  inst.: 12969600 (ipc=551.9) sim_rate=209187 (inst/sec) elapsed = 0:0:01:02 / Fri Jan 11 07:42:13 2019
GPGPU-Sim PTX: 13000000 instructions simulated : ctaid=(6,1,0) tid=(15,3,0)
GPGPU-Sim PTX: 13100000 instructions simulated : ctaid=(4,7,0) tid=(15,7,0)
GPGPU-Sim PTX: 13200000 instructions simulated : ctaid=(7,11,0) tid=(15,1,0)
GPGPU-Sim uArch: cycles simulated: 24000  inst.: 13258944 (ipc=552.5) sim_rate=210459 (inst/sec) elapsed = 0:0:01:03 / Fri Jan 11 07:42:14 2019
GPGPU-Sim PTX: 13300000 instructions simulated : ctaid=(6,2,0) tid=(15,1,0)
GPGPU-Sim PTX: 13400000 instructions simulated : ctaid=(2,0,0) tid=(15,1,0)
GPGPU-Sim PTX: 13500000 instructions simulated : ctaid=(0,10,0) tid=(15,1,0)
GPGPU-Sim uArch: cycles simulated: 24500  inst.: 13539520 (ipc=552.6) sim_rate=211555 (inst/sec) elapsed = 0:0:01:04 / Fri Jan 11 07:42:15 2019
GPGPU-Sim PTX: 13600000 instructions simulated : ctaid=(6,11,0) tid=(15,1,0)
GPGPU-Sim PTX: 13700000 instructions simulated : ctaid=(7,2,0) tid=(15,5,0)
GPGPU-Sim PTX: 13800000 instructions simulated : ctaid=(4,4,0) tid=(15,3,0)
GPGPU-Sim uArch: cycles simulated: 25000  inst.: 13832160 (ipc=553.3) sim_rate=212802 (inst/sec) elapsed = 0:0:01:05 / Fri Jan 11 07:42:16 2019
GPGPU-Sim PTX: 13900000 instructions simulated : ctaid=(5,6,0) tid=(15,1,0)
GPGPU-Sim PTX: 14000000 instructions simulated : ctaid=(1,7,0) tid=(15,5,0)
GPGPU-Sim PTX: 14100000 instructions simulated : ctaid=(6,9,0) tid=(15,1,0)
GPGPU-Sim uArch: cycles simulated: 25500  inst.: 14121056 (ipc=553.8) sim_rate=210762 (inst/sec) elapsed = 0:0:01:07 / Fri Jan 11 07:42:18 2019
GPGPU-Sim PTX: 14200000 instructions simulated : ctaid=(1,0,0) tid=(15,1,0)
GPGPU-Sim PTX: 14300000 instructions simulated : ctaid=(3,2,0) tid=(15,7,0)
GPGPU-Sim PTX: 14400000 instructions simulated : ctaid=(7,12,0) tid=(15,3,0)
GPGPU-Sim uArch: cycles simulated: 26000  inst.: 14411136 (ipc=554.3) sim_rate=211928 (inst/sec) elapsed = 0:0:01:08 / Fri Jan 11 07:42:19 2019
GPGPU-Sim PTX: 14500000 instructions simulated : ctaid=(5,2,0) tid=(15,7,0)
GPGPU-Sim PTX: 14600000 instructions simulated : ctaid=(6,5,0) tid=(15,3,0)
GPGPU-Sim PTX: 14700000 instructions simulated : ctaid=(2,3,0) tid=(15,7,0)
GPGPU-Sim uArch: cycles simulated: 26500  inst.: 14678752 (ipc=553.9) sim_rate=212735 (inst/sec) elapsed = 0:0:01:09 / Fri Jan 11 07:42:20 2019
GPGPU-Sim PTX: 14800000 instructions simulated : ctaid=(6,11,0) tid=(15,1,0)
GPGPU-Sim PTX: 14900000 instructions simulated : ctaid=(2,7,0) tid=(15,5,0)
GPGPU-Sim uArch: cycles simulated: 27000  inst.: 14966432 (ipc=554.3) sim_rate=210794 (inst/sec) elapsed = 0:0:01:11 / Fri Jan 11 07:42:22 2019
GPGPU-Sim PTX: 15000000 instructions simulated : ctaid=(0,10,0) tid=(15,1,0)
GPGPU-Sim PTX: 15100000 instructions simulated : ctaid=(6,6,0) tid=(15,1,0)
GPGPU-Sim PTX: 15200000 instructions simulated : ctaid=(2,8,0) tid=(15,5,0)
GPGPU-Sim uArch: cycles simulated: 27500  inst.: 15253280 (ipc=554.7) sim_rate=211851 (inst/sec) elapsed = 0:0:01:12 / Fri Jan 11 07:42:23 2019
GPGPU-Sim PTX: 15300000 instructions simulated : ctaid=(0,4,0) tid=(15,5,0)
GPGPU-Sim PTX: 15400000 instructions simulated : ctaid=(5,9,0) tid=(15,1,0)
GPGPU-Sim PTX: 15500000 instructions simulated : ctaid=(6,4,0) tid=(15,3,0)
GPGPU-Sim uArch: cycles simulated: 28000  inst.: 15543104 (ipc=555.1) sim_rate=212919 (inst/sec) elapsed = 0:0:01:13 / Fri Jan 11 07:42:24 2019
GPGPU-Sim PTX: 15600000 instructions simulated : ctaid=(4,6,0) tid=(15,7,0)
GPGPU-Sim PTX: 15700000 instructions simulated : ctaid=(1,10,0) tid=(15,1,0)
GPGPU-Sim PTX: 15800000 instructions simulated : ctaid=(6,10,0) tid=(15,1,0)
GPGPU-Sim uArch: cycles simulated: 28500  inst.: 15808992 (ipc=554.7) sim_rate=210786 (inst/sec) elapsed = 0:0:01:15 / Fri Jan 11 07:42:26 2019
GPGPU-Sim PTX: 15900000 instructions simulated : ctaid=(2,11,0) tid=(15,3,0)
GPGPU-Sim PTX: 16000000 instructions simulated : ctaid=(6,11,0) tid=(15,3,0)
GPGPU-Sim PTX: 16100000 instructions simulated : ctaid=(4,5,0) tid=(15,5,0)
GPGPU-Sim uArch: cycles simulated: 29000  inst.: 16118848 (ipc=555.8) sim_rate=212090 (inst/sec) elapsed = 0:0:01:16 / Fri Jan 11 07:42:27 2019
GPGPU-Sim PTX: 16200000 instructions simulated : ctaid=(6,1,0) tid=(15,1,0)
GPGPU-Sim PTX: 16300000 instructions simulated : ctaid=(4,0,0) tid=(15,3,0)
GPGPU-Sim PTX: 16400000 instructions simulated : ctaid=(0,10,0) tid=(15,5,0)
GPGPU-Sim uArch: cycles simulated: 29500  inst.: 16399104 (ipc=555.9) sim_rate=212975 (inst/sec) elapsed = 0:0:01:17 / Fri Jan 11 07:42:28 2019
GPGPU-Sim PTX: 16500000 instructions simulated : ctaid=(4,8,0) tid=(15,1,0)
GPGPU-Sim PTX: 16600000 instructions simulated : ctaid=(1,0,0) tid=(15,7,0)
GPGPU-Sim PTX: 16700000 instructions simulated : ctaid=(4,10,0) tid=(15,7,0)
GPGPU-Sim uArch: cycles simulated: 30000  inst.: 16691104 (ipc=556.4) sim_rate=211279 (inst/sec) elapsed = 0:0:01:19 / Fri Jan 11 07:42:30 2019
GPGPU-Sim PTX: 16800000 instructions simulated : ctaid=(6,3,0) tid=(15,1,0)
GPGPU-Sim PTX: 16900000 instructions simulated : ctaid=(4,2,0) tid=(15,7,0)
GPGPU-Sim uArch: cycles simulated: 30500  inst.: 16960608 (ipc=556.1) sim_rate=212007 (inst/sec) elapsed = 0:0:01:20 / Fri Jan 11 07:42:31 2019
GPGPU-Sim PTX: 17000000 instructions simulated : ctaid=(6,4,0) tid=(15,5,0)
GPGPU-Sim PTX: 17100000 instructions simulated : ctaid=(3,1,0) tid=(15,5,0)
GPGPU-Sim PTX: 17200000 instructions simulated : ctaid=(5,1,0) tid=(15,1,0)
GPGPU-Sim uArch: cycles simulated: 31000  inst.: 17246688 (ipc=556.3) sim_rate=212922 (inst/sec) elapsed = 0:0:01:21 / Fri Jan 11 07:42:32 2019
GPGPU-Sim PTX: 17300000 instructions simulated : ctaid=(2,8,0) tid=(15,7,0)
GPGPU-Sim PTX: 17400000 instructions simulated : ctaid=(3,10,0) tid=(15,3,0)
GPGPU-Sim PTX: 17500000 instructions simulated : ctaid=(1,2,0) tid=(15,3,0)
GPGPU-Sim uArch: cycles simulated: 31500  inst.: 17531008 (ipc=556.5) sim_rate=211216 (inst/sec) elapsed = 0:0:01:23 / Fri Jan 11 07:42:34 2019
GPGPU-Sim PTX: 17600000 instructions simulated : ctaid=(0,5,0) tid=(15,3,0)
GPGPU-Sim PTX: 17700000 instructions simulated : ctaid=(2,1,0) tid=(15,1,0)
GPGPU-Sim PTX: 17800000 instructions simulated : ctaid=(1,6,0) tid=(15,1,0)
GPGPU-Sim uArch: cycles simulated: 32000  inst.: 17824864 (ipc=557.0) sim_rate=212200 (inst/sec) elapsed = 0:0:01:24 / Fri Jan 11 07:42:35 2019
GPGPU-Sim PTX: 17900000 instructions simulated : ctaid=(6,2,0) tid=(15,1,0)
GPGPU-Sim PTX: 18000000 instructions simulated : ctaid=(4,5,0) tid=(15,7,0)
GPGPU-Sim PTX: 18100000 instructions simulated : ctaid=(4,1,0) tid=(15,7,0)
GPGPU-Sim uArch: cycles simulated: 32500  inst.: 18092928 (ipc=556.7) sim_rate=212857 (inst/sec) elapsed = 0:0:01:25 / Fri Jan 11 07:42:36 2019
GPGPU-Sim PTX: 18200000 instructions simulated : ctaid=(7,6,0) tid=(15,5,0)
GPGPU-Sim PTX: 18300000 instructions simulated : ctaid=(4,4,0) tid=(15,3,0)
GPGPU-Sim PTX: 18400000 instructions simulated : ctaid=(3,10,0) tid=(15,5,0)
GPGPU-Sim uArch: cycles simulated: 33000  inst.: 18397600 (ipc=557.5) sim_rate=211466 (inst/sec) elapsed = 0:0:01:27 / Fri Jan 11 07:42:38 2019
GPGPU-Sim PTX: 18500000 instructions simulated : ctaid=(7,7,0) tid=(15,3,0)
GPGPU-Sim PTX: 18600000 instructions simulated : ctaid=(4,8,0) tid=(15,3,0)
GPGPU-Sim PTX: 18700000 instructions simulated : ctaid=(5,10,0) tid=(15,5,0)
GPGPU-Sim uArch: cycles simulated: 33500  inst.: 18681088 (ipc=557.6) sim_rate=212285 (inst/sec) elapsed = 0:0:01:28 / Fri Jan 11 07:42:39 2019
GPGPU-Sim PTX: 18800000 instructions simulated : ctaid=(0,0,0) tid=(15,1,0)
GPGPU-Sim PTX: 18900000 instructions simulated : ctaid=(3,11,0) tid=(15,5,0)
GPGPU-Sim uArch: cycles simulated: 34000  inst.: 18973856 (ipc=558.1) sim_rate=213189 (inst/sec) elapsed = 0:0:01:29 / Fri Jan 11 07:42:40 2019
GPGPU-Sim PTX: 19000000 instructions simulated : ctaid=(2,9,0) tid=(15,1,0)
GPGPU-Sim PTX: 19100000 instructions simulated : ctaid=(0,0,0) tid=(15,1,0)
GPGPU-Sim PTX: 19200000 instructions simulated : ctaid=(2,8,0) tid=(15,7,0)
GPGPU-Sim uArch: cycles simulated: 34500  inst.: 19241120 (ipc=557.7) sim_rate=211440 (inst/sec) elapsed = 0:0:01:31 / Fri Jan 11 07:42:42 2019
GPGPU-Sim PTX: 19300000 instructions simulated : ctaid=(3,1,0) tid=(15,7,0)
GPGPU-Sim PTX: 19400000 instructions simulated : ctaid=(2,4,0) tid=(15,5,0)
GPGPU-Sim PTX: 19500000 instructions simulated : ctaid=(0,10,0) tid=(15,5,0)
GPGPU-Sim uArch: cycles simulated: 35000  inst.: 19533088 (ipc=558.1) sim_rate=212316 (inst/sec) elapsed = 0:0:01:32 / Fri Jan 11 07:42:43 2019
GPGPU-Sim PTX: 19600000 instructions simulated : ctaid=(1,12,0) tid=(15,1,0)
GPGPU-Sim PTX: 19700000 instructions simulated : ctaid=(0,9,0) tid=(15,3,0)
GPGPU-Sim PTX: 19800000 instructions simulated : ctaid=(6,4,0) tid=(15,5,0)
GPGPU-Sim uArch: cycles simulated: 35500  inst.: 19811008 (ipc=558.1) sim_rate=213021 (inst/sec) elapsed = 0:0:01:33 / Fri Jan 11 07:42:44 2019
GPGPU-Sim PTX: 19900000 instructions simulated : ctaid=(7,5,0) tid=(15,3,0)
GPGPU-Sim PTX: 20000000 instructions simulated : ctaid=(1,2,0) tid=(15,1,0)
GPGPU-Sim PTX: 20100000 instructions simulated : ctaid=(6,7,0) tid=(15,5,0)
GPGPU-Sim uArch: cycles simulated: 36000  inst.: 20104960 (ipc=558.5) sim_rate=211631 (inst/sec) elapsed = 0:0:01:35 / Fri Jan 11 07:42:46 2019
GPGPU-Sim PTX: 20200000 instructions simulated : ctaid=(1,5,0) tid=(15,1,0)
GPGPU-Sim PTX: 20300000 instructions simulated : ctaid=(0,2,0) tid=(15,5,0)
GPGPU-Sim PTX: 20400000 instructions simulated : ctaid=(0,7,0) tid=(15,5,0)
GPGPU-Sim uArch: cycles simulated: 36500  inst.: 20369376 (ipc=558.1) sim_rate=212181 (inst/sec) elapsed = 0:0:01:36 / Fri Jan 11 07:42:47 2019
GPGPU-Sim PTX: 20500000 instructions simulated : ctaid=(2,5,0) tid=(15,7,0)
GPGPU-Sim PTX: 20600000 instructions simulated : ctaid=(2,6,0) tid=(15,5,0)
GPGPU-Sim PTX: 20700000 instructions simulated : ctaid=(0,6,0) tid=(15,5,0)
GPGPU-Sim uArch: cycles simulated: 37000  inst.: 20676800 (ipc=558.8) sim_rate=213162 (inst/sec) elapsed = 0:0:01:37 / Fri Jan 11 07:42:48 2019
GPGPU-Sim PTX: 20800000 instructions simulated : ctaid=(2,1,0) tid=(15,5,0)
GPGPU-Sim PTX: 20900000 instructions simulated : ctaid=(1,11,0) tid=(15,1,0)
GPGPU-Sim uArch: cycles simulated: 37500  inst.: 20958528 (ipc=558.9) sim_rate=211702 (inst/sec) elapsed = 0:0:01:39 / Fri Jan 11 07:42:50 2019
GPGPU-Sim PTX: 21000000 instructions simulated : ctaid=(0,4,0) tid=(15,3,0)
GPGPU-Sim PTX: 21100000 instructions simulated : ctaid=(0,11,0) tid=(15,1,0)
GPGPU-Sim PTX: 21200000 instructions simulated : ctaid=(3,7,0) tid=(15,1,0)
GPGPU-Sim uArch: cycles simulated: 38000  inst.: 21253568 (ipc=559.3) sim_rate=212535 (inst/sec) elapsed = 0:0:01:40 / Fri Jan 11 07:42:51 2019
GPGPU-Sim PTX: 21300000 instructions simulated : ctaid=(5,2,0) tid=(15,3,0)
GPGPU-Sim PTX: 21400000 instructions simulated : ctaid=(6,2,0) tid=(15,1,0)
GPGPU-Sim PTX: 21500000 instructions simulated : ctaid=(3,1,0) tid=(15,1,0)
GPGPU-Sim uArch: cycles simulated: 38500  inst.: 21520832 (ipc=559.0) sim_rate=213077 (inst/sec) elapsed = 0:0:01:41 / Fri Jan 11 07:42:52 2019
GPGPU-Sim PTX: 21600000 instructions simulated : ctaid=(2,1,0) tid=(15,1,0)
GPGPU-Sim PTX: 21700000 instructions simulated : ctaid=(3,1,0) tid=(15,1,0)
GPGPU-Sim PTX: 21800000 instructions simulated : ctaid=(2,6,0) tid=(15,7,0)
GPGPU-Sim uArch: cycles simulated: 39000  inst.: 21810912 (ipc=559.3) sim_rate=213832 (inst/sec) elapsed = 0:0:01:42 / Fri Jan 11 07:42:53 2019
GPGPU-Sim PTX: 21900000 instructions simulated : ctaid=(5,8,0) tid=(15,1,0)
GPGPU-Sim PTX: 22000000 instructions simulated : ctaid=(4,13,0) tid=(15,5,0)
GPGPU-Sim PTX: 22100000 instructions simulated : ctaid=(2,10,0) tid=(15,3,0)
GPGPU-Sim uArch: cycles simulated: 39500  inst.: 22102624 (ipc=559.6) sim_rate=212525 (inst/sec) elapsed = 0:0:01:44 / Fri Jan 11 07:42:55 2019
GPGPU-Sim PTX: 22200000 instructions simulated : ctaid=(6,3,0) tid=(15,1,0)
GPGPU-Sim PTX: 22300000 instructions simulated : ctaid=(3,0,0) tid=(15,3,0)
GPGPU-Sim PTX: 22400000 instructions simulated : ctaid=(0,6,0) tid=(15,3,0)
GPGPU-Sim uArch: cycles simulated: 40000  inst.: 22383648 (ipc=559.6) sim_rate=213177 (inst/sec) elapsed = 0:0:01:45 / Fri Jan 11 07:42:56 2019
GPGPU-Sim PTX: 22500000 instructions simulated : ctaid=(7,0,0) tid=(15,1,0)
GPGPU-Sim PTX: 22600000 instructions simulated : ctaid=(7,2,0) tid=(15,3,0)
GPGPU-Sim uArch: cycles simulated: 40500  inst.: 22654112 (ipc=559.4) sim_rate=213718 (inst/sec) elapsed = 0:0:01:46 / Fri Jan 11 07:42:57 2019
GPGPU-Sim PTX: 22700000 instructions simulated : ctaid=(2,7,0) tid=(15,7,0)
GPGPU-Sim PTX: 22800000 instructions simulated : ctaid=(5,8,0) tid=(15,5,0)
GPGPU-Sim PTX: 22900000 instructions simulated : ctaid=(5,3,0) tid=(15,1,0)
GPGPU-Sim uArch: cycles simulated: 41000  inst.: 22956960 (ipc=559.9) sim_rate=212564 (inst/sec) elapsed = 0:0:01:48 / Fri Jan 11 07:42:59 2019
GPGPU-Sim PTX: 23000000 instructions simulated : ctaid=(4,10,0) tid=(15,1,0)
GPGPU-Sim PTX: 23100000 instructions simulated : ctaid=(1,1,0) tid=(15,3,0)
GPGPU-Sim PTX: 23200000 instructions simulated : ctaid=(3,6,0) tid=(15,7,0)
GPGPU-Sim uArch: cycles simulated: 41500  inst.: 23235680 (ipc=559.9) sim_rate=213171 (inst/sec) elapsed = 0:0:01:49 / Fri Jan 11 07:43:00 2019
GPGPU-Sim PTX: 23300000 instructions simulated : ctaid=(1,7,0) tid=(15,1,0)
GPGPU-Sim PTX: 23400000 instructions simulated : ctaid=(6,9,0) tid=(15,1,0)
GPGPU-Sim PTX: 23500000 instructions simulated : ctaid=(1,8,0) tid=(15,5,0)
GPGPU-Sim uArch: cycles simulated: 42000  inst.: 23509728 (ipc=559.8) sim_rate=213724 (inst/sec) elapsed = 0:0:01:50 / Fri Jan 11 07:43:01 2019
GPGPU-Sim PTX: 23600000 instructions simulated : ctaid=(6,7,0) tid=(15,3,0)
GPGPU-Sim PTX: 23700000 instructions simulated : ctaid=(2,0,0) tid=(15,1,0)
GPGPU-Sim PTX: 23800000 instructions simulated : ctaid=(1,7,0) tid=(15,3,0)
GPGPU-Sim uArch: cycles simulated: 42500  inst.: 23811648 (ipc=560.3) sim_rate=212604 (inst/sec) elapsed = 0:0:01:52 / Fri Jan 11 07:43:03 2019
GPGPU-Sim PTX: 23900000 instructions simulated : ctaid=(2,1,0) tid=(15,7,0)
GPGPU-Sim PTX: 24000000 instructions simulated : ctaid=(4,6,0) tid=(15,5,0)
GPGPU-Sim PTX: 24100000 instructions simulated : ctaid=(1,1,0) tid=(15,7,0)
GPGPU-Sim uArch: cycles simulated: 43000  inst.: 24093280 (ipc=560.3) sim_rate=213214 (inst/sec) elapsed = 0:0:01:53 / Fri Jan 11 07:43:04 2019
GPGPU-Sim PTX: 24200000 instructions simulated : ctaid=(6,1,0) tid=(15,5,0)
GPGPU-Sim PTX: 24300000 instructions simulated : ctaid=(0,11,0) tid=(15,3,0)
GPGPU-Sim PTX: 24400000 instructions simulated : ctaid=(4,5,0) tid=(15,5,0)
GPGPU-Sim uArch: cycles simulated: 43500  inst.: 24381216 (ipc=560.5) sim_rate=213870 (inst/sec) elapsed = 0:0:01:54 / Fri Jan 11 07:43:05 2019
GPGPU-Sim PTX: 24500000 instructions simulated : ctaid=(5,4,0) tid=(15,5,0)
GPGPU-Sim PTX: 24600000 instructions simulated : ctaid=(1,11,0) tid=(15,7,0)
GPGPU-Sim uArch: cycles simulated: 44000  inst.: 24662400 (ipc=560.5) sim_rate=212606 (inst/sec) elapsed = 0:0:01:56 / Fri Jan 11 07:43:07 2019
GPGPU-Sim PTX: 24700000 instructions simulated : ctaid=(1,8,0) tid=(15,5,0)
GPGPU-Sim PTX: 24800000 instructions simulated : ctaid=(1,0,0) tid=(15,5,0)
GPGPU-Sim PTX: 24900000 instructions simulated : ctaid=(3,1,0) tid=(15,7,0)
GPGPU-Sim uArch: cycles simulated: 44500  inst.: 24937536 (ipc=560.4) sim_rate=213141 (inst/sec) elapsed = 0:0:01:57 / Fri Jan 11 07:43:08 2019
GPGPU-Sim PTX: 25000000 instructions simulated : ctaid=(1,7,0) tid=(15,1,0)
GPGPU-Sim PTX: 25100000 instructions simulated : ctaid=(3,2,0) tid=(15,3,0)
GPGPU-Sim PTX: 25200000 instructions simulated : ctaid=(1,12,0) tid=(15,7,0)
GPGPU-Sim uArch: cycles simulated: 45000  inst.: 25225888 (ipc=560.6) sim_rate=213778 (inst/sec) elapsed = 0:0:01:58 / Fri Jan 11 07:43:09 2019
GPGPU-Sim PTX: 25300000 instructions simulated : ctaid=(0,11,0) tid=(15,1,0)
GPGPU-Sim PTX: 25400000 instructions simulated : ctaid=(4,6,0) tid=(15,5,0)
GPGPU-Sim PTX: 25500000 instructions simulated : ctaid=(5,0,0) tid=(15,3,0)
GPGPU-Sim uArch: cycles simulated: 45500  inst.: 25518400 (ipc=560.8) sim_rate=212653 (inst/sec) elapsed = 0:0:02:00 / Fri Jan 11 07:43:11 2019
GPGPU-Sim PTX: 25600000 instructions simulated : ctaid=(6,2,0) tid=(15,5,0)
GPGPU-Sim PTX: 25700000 instructions simulated : ctaid=(5,5,0) tid=(15,7,0)
GPGPU-Sim PTX: 25800000 instructions simulated : ctaid=(1,2,0) tid=(15,7,0)
GPGPU-Sim uArch: cycles simulated: 46000  inst.: 25791296 (ipc=560.7) sim_rate=213151 (inst/sec) elapsed = 0:0:02:01 / Fri Jan 11 07:43:12 2019
GPGPU-Sim PTX: 25900000 instructions simulated : ctaid=(7,5,0) tid=(15,7,0)
GPGPU-Sim PTX: 26000000 instructions simulated : ctaid=(3,3,0) tid=(15,1,0)
GPGPU-Sim PTX: 26100000 instructions simulated : ctaid=(6,8,0) tid=(15,5,0)
GPGPU-Sim uArch: cycles simulated: 46500  inst.: 26089312 (ipc=561.1) sim_rate=213846 (inst/sec) elapsed = 0:0:02:02 / Fri Jan 11 07:43:13 2019
GPGPU-Sim PTX: 26200000 instructions simulated : ctaid=(6,7,0) tid=(15,1,0)
GPGPU-Sim PTX: 26300000 instructions simulated : ctaid=(1,4,0) tid=(15,3,0)
GPGPU-Sim PTX: 26400000 instructions simulated : ctaid=(4,7,0) tid=(15,1,0)
GPGPU-Sim uArch: cycles simulated: 47000  inst.: 26378752 (ipc=561.3) sim_rate=212731 (inst/sec) elapsed = 0:0:02:04 / Fri Jan 11 07:43:15 2019
GPGPU-Sim PTX: 26500000 instructions simulated : ctaid=(0,12,0) tid=(15,1,0)
GPGPU-Sim PTX: 26600000 instructions simulated : ctaid=(7,11,0) tid=(15,1,0)
GPGPU-Sim uArch: cycles simulated: 47500  inst.: 26669216 (ipc=561.5) sim_rate=213353 (inst/sec) elapsed = 0:0:02:05 / Fri Jan 11 07:43:16 2019
GPGPU-Sim PTX: 26700000 instructions simulated : ctaid=(1,2,0) tid=(15,7,0)
GPGPU-Sim PTX: 26800000 instructions simulated : ctaid=(2,6,0) tid=(15,1,0)
GPGPU-Sim PTX: 26900000 instructions simulated : ctaid=(7,3,0) tid=(15,1,0)
GPGPU-Sim uArch: cycles simulated: 48000  inst.: 26936576 (ipc=561.2) sim_rate=213782 (inst/sec) elapsed = 0:0:02:06 / Fri Jan 11 07:43:17 2019
GPGPU-Sim PTX: 27000000 instructions simulated : ctaid=(4,4,0) tid=(15,3,0)
GPGPU-Sim PTX: 27100000 instructions simulated : ctaid=(0,11,0) tid=(15,5,0)
GPGPU-Sim PTX: 27200000 instructions simulated : ctaid=(1,1,0) tid=(15,5,0)
GPGPU-Sim uArch: cycles simulated: 48500  inst.: 27225664 (ipc=561.4) sim_rate=214375 (inst/sec) elapsed = 0:0:02:07 / Fri Jan 11 07:43:18 2019
GPGPU-Sim PTX: 27300000 instructions simulated : ctaid=(7,2,0) tid=(15,7,0)
GPGPU-Sim PTX: 27400000 instructions simulated : ctaid=(7,11,0) tid=(15,7,0)
GPGPU-Sim PTX: 27500000 instructions simulated : ctaid=(4,1,0) tid=(15,1,0)
GPGPU-Sim uArch: cycles simulated: 49000  inst.: 27507456 (ipc=561.4) sim_rate=213236 (inst/sec) elapsed = 0:0:02:09 / Fri Jan 11 07:43:20 2019
GPGPU-Sim PTX: 27600000 instructions simulated : ctaid=(1,8,0) tid=(15,7,0)
GPGPU-Sim PTX: 27700000 instructions simulated : ctaid=(1,3,0) tid=(15,3,0)
GPGPU-Sim PTX: 27800000 instructions simulated : ctaid=(0,3,0) tid=(15,5,0)
GPGPU-Sim uArch: cycles simulated: 49500  inst.: 27795360 (ipc=561.5) sim_rate=213810 (inst/sec) elapsed = 0:0:02:10 / Fri Jan 11 07:43:21 2019
GPGPU-Sim PTX: 27900000 instructions simulated : ctaid=(7,1,0) tid=(15,3,0)
GPGPU-Sim PTX: 28000000 instructions simulated : ctaid=(7,1,0) tid=(15,7,0)
GPGPU-Sim PTX: 28100000 instructions simulated : ctaid=(2,6,0) tid=(15,7,0)
GPGPU-Sim uArch: cycles simulated: 50000  inst.: 28063008 (ipc=561.3) sim_rate=214221 (inst/sec) elapsed = 0:0:02:11 / Fri Jan 11 07:43:22 2019
GPGPU-Sim PTX: 28200000 instructions simulated : ctaid=(5,6,0) tid=(15,5,0)
GPGPU-Sim PTX: 28300000 instructions simulated : ctaid=(4,0,0) tid=(15,3,0)
GPGPU-Sim uArch: cycles simulated: 50500  inst.: 28372864 (ipc=561.8) sim_rate=213329 (inst/sec) elapsed = 0:0:02:13 / Fri Jan 11 07:43:24 2019
GPGPU-Sim PTX: 28400000 instructions simulated : ctaid=(5,12,0) tid=(15,1,0)
GPGPU-Sim PTX: 28500000 instructions simulated : ctaid=(7,0,0) tid=(15,5,0)
GPGPU-Sim PTX: 28600000 instructions simulated : ctaid=(4,1,0) tid=(15,3,0)
GPGPU-Sim uArch: cycles simulated: 51000  inst.: 28650624 (ipc=561.8) sim_rate=213810 (inst/sec) elapsed = 0:0:02:14 / Fri Jan 11 07:43:25 2019
GPGPU-Sim PTX: 28700000 instructions simulated : ctaid=(2,1,0) tid=(15,3,0)
GPGPU-Sim PTX: 28800000 instructions simulated : ctaid=(7,10,0) tid=(15,5,0)
GPGPU-Sim PTX: 28900000 instructions simulated : ctaid=(0,4,0) tid=(15,1,0)
GPGPU-Sim uArch: cycles simulated: 51500  inst.: 28946176 (ipc=562.1) sim_rate=214416 (inst/sec) elapsed = 0:0:02:15 / Fri Jan 11 07:43:26 2019
GPGPU-Sim PTX: 29000000 instructions simulated : ctaid=(0,10,0) tid=(15,3,0)
GPGPU-Sim PTX: 29100000 instructions simulated : ctaid=(0,5,0) tid=(15,1,0)
GPGPU-Sim PTX: 29200000 instructions simulated : ctaid=(6,0,0) tid=(15,5,0)
GPGPU-Sim uArch: cycles simulated: 52000  inst.: 29213888 (ipc=561.8) sim_rate=213240 (inst/sec) elapsed = 0:0:02:17 / Fri Jan 11 07:43:28 2019
GPGPU-Sim PTX: 29300000 instructions simulated : ctaid=(5,2,0) tid=(15,1,0)
GPGPU-Sim PTX: 29400000 instructions simulated : ctaid=(4,9,0) tid=(15,5,0)
GPGPU-Sim PTX: 29500000 instructions simulated : ctaid=(1,2,0) tid=(15,3,0)
GPGPU-Sim uArch: cycles simulated: 52500  inst.: 29504000 (ipc=562.0) sim_rate=213797 (inst/sec) elapsed = 0:0:02:18 / Fri Jan 11 07:43:29 2019
GPGPU-Sim PTX: 29600000 instructions simulated : ctaid=(0,6,0) tid=(15,5,0)
GPGPU-Sim PTX: 29700000 instructions simulated : ctaid=(7,6,0) tid=(15,3,0)
GPGPU-Sim PTX: 29800000 instructions simulated : ctaid=(0,12,0) tid=(15,5,0)
GPGPU-Sim uArch: cycles simulated: 53000  inst.: 29793856 (ipc=562.1) sim_rate=214344 (inst/sec) elapsed = 0:0:02:19 / Fri Jan 11 07:43:30 2019
GPGPU-Sim PTX: 29900000 instructions simulated : ctaid=(4,4,0) tid=(15,3,0)
GPGPU-Sim PTX: 30000000 instructions simulated : ctaid=(3,7,0) tid=(15,1,0)
GPGPU-Sim PTX: 30100000 instructions simulated : ctaid=(0,8,0) tid=(15,1,0)
GPGPU-Sim uArch: cycles simulated: 53500  inst.: 30080288 (ipc=562.2) sim_rate=213335 (inst/sec) elapsed = 0:0:02:21 / Fri Jan 11 07:43:32 2019
GPGPU-Sim PTX: 30200000 instructions simulated : ctaid=(7,3,0) tid=(15,1,0)
GPGPU-Sim PTX: 30300000 instructions simulated : ctaid=(6,11,0) tid=(15,1,0)
GPGPU-Sim uArch: cycles simulated: 54000  inst.: 30349152 (ipc=562.0) sim_rate=213726 (inst/sec) elapsed = 0:0:02:22 / Fri Jan 11 07:43:33 2019
GPGPU-Sim PTX: 30400000 instructions simulated : ctaid=(7,0,0) tid=(15,3,0)
GPGPU-Sim PTX: 30500000 instructions simulated : ctaid=(7,7,0) tid=(15,5,0)
GPGPU-Sim PTX: 30600000 instructions simulated : ctaid=(3,6,0) tid=(15,5,0)
GPGPU-Sim uArch: cycles simulated: 54500  inst.: 30651520 (ipc=562.4) sim_rate=214346 (inst/sec) elapsed = 0:0:02:23 / Fri Jan 11 07:43:34 2019
GPGPU-Sim PTX: 30700000 instructions simulated : ctaid=(5,8,0) tid=(15,1,0)
GPGPU-Sim PTX: 30800000 instructions simulated : ctaid=(0,0,0) tid=(15,3,0)
GPGPU-Sim PTX: 30900000 instructions simulated : ctaid=(1,6,0) tid=(15,1,0)
GPGPU-Sim uArch: cycles simulated: 55000  inst.: 30933056 (ipc=562.4) sim_rate=213331 (inst/sec) elapsed = 0:0:02:25 / Fri Jan 11 07:43:36 2019
GPGPU-Sim PTX: 31000000 instructions simulated : ctaid=(6,1,0) tid=(15,3,0)
GPGPU-Sim PTX: 31100000 instructions simulated : ctaid=(4,7,0) tid=(15,5,0)
GPGPU-Sim PTX: 31200000 instructions simulated : ctaid=(4,13,0) tid=(15,5,0)
GPGPU-Sim uArch: cycles simulated: 55500  inst.: 31215936 (ipc=562.4) sim_rate=213807 (inst/sec) elapsed = 0:0:02:26 / Fri Jan 11 07:43:37 2019
GPGPU-Sim PTX: 31300000 instructions simulated : ctaid=(4,3,0) tid=(15,3,0)
GPGPU-Sim PTX: 31400000 instructions simulated : ctaid=(1,0,0) tid=(15,5,0)
GPGPU-Sim PTX: 31500000 instructions simulated : ctaid=(0,7,0) tid=(15,7,0)
GPGPU-Sim uArch: cycles simulated: 56000  inst.: 31501824 (ipc=562.5) sim_rate=214298 (inst/sec) elapsed = 0:0:02:27 / Fri Jan 11 07:43:38 2019
GPGPU-Sim PTX: 31600000 instructions simulated : ctaid=(4,10,0) tid=(15,5,0)
GPGPU-Sim PTX: 31700000 instructions simulated : ctaid=(3,9,0) tid=(15,5,0)
GPGPU-Sim PTX: 31800000 instructions simulated : ctaid=(2,7,0) tid=(15,1,0)
GPGPU-Sim uArch: cycles simulated: 56500  inst.: 31790976 (ipc=562.7) sim_rate=213362 (inst/sec) elapsed = 0:0:02:29 / Fri Jan 11 07:43:40 2019
GPGPU-Sim PTX: 31900000 instructions simulated : ctaid=(5,5,0) tid=(15,5,0)
GPGPU-Sim PTX: 32000000 instructions simulated : ctaid=(5,10,0) tid=(15,1,0)
GPGPU-Sim uArch: cycles simulated: 57000  inst.: 32071776 (ipc=562.7) sim_rate=213811 (inst/sec) elapsed = 0:0:02:30 / Fri Jan 11 07:43:41 2019
GPGPU-Sim PTX: 32100000 instructions simulated : ctaid=(6,1,0) tid=(15,3,0)
GPGPU-Sim PTX: 32200000 instructions simulated : ctaid=(0,7,0) tid=(15,1,0)
GPGPU-Sim PTX: 32300000 instructions simulated : ctaid=(5,3,0) tid=(15,7,0)
GPGPU-Sim uArch: cycles simulated: 57500  inst.: 32359392 (ipc=562.8) sim_rate=214300 (inst/sec) elapsed = 0:0:02:31 / Fri Jan 11 07:43:42 2019
GPGPU-Sim PTX: 32400000 instructions simulated : ctaid=(2,8,0) tid=(15,3,0)
GPGPU-Sim PTX: 32500000 instructions simulated : ctaid=(7,4,0) tid=(15,5,0)
GPGPU-Sim PTX: 32600000 instructions simulated : ctaid=(5,1,0) tid=(15,1,0)
GPGPU-Sim uArch: cycles simulated: 58000  inst.: 32630112 (ipc=562.6) sim_rate=213268 (inst/sec) elapsed = 0:0:02:33 / Fri Jan 11 07:43:44 2019
GPGPU-Sim PTX: 32700000 instructions simulated : ctaid=(3,10,0) tid=(15,1,0)
GPGPU-Sim PTX: 32800000 instructions simulated : ctaid=(7,12,0) tid=(15,1,0)
GPGPU-Sim PTX: 32900000 instructions simulated : ctaid=(6,0,0) tid=(15,5,0)
GPGPU-Sim uArch: cycles simulated: 58500  inst.: 32918720 (ipc=562.7) sim_rate=213757 (inst/sec) elapsed = 0:0:02:34 / Fri Jan 11 07:43:45 2019
GPGPU-Sim PTX: 33000000 instructions simulated : ctaid=(1,10,0) tid=(15,5,0)
GPGPU-Sim PTX: 33100000 instructions simulated : ctaid=(3,1,0) tid=(15,1,0)
GPGPU-Sim PTX: 33200000 instructions simulated : ctaid=(4,1,0) tid=(15,7,0)
GPGPU-Sim uArch: cycles simulated: 59000  inst.: 33211456 (ipc=562.9) sim_rate=214267 (inst/sec) elapsed = 0:0:02:35 / Fri Jan 11 07:43:46 2019
GPGPU-Sim PTX: 33300000 instructions simulated : ctaid=(5,6,0) tid=(15,7,0)
GPGPU-Sim PTX: 33400000 instructions simulated : ctaid=(5,0,0) tid=(15,7,0)
GPGPU-Sim PTX: 33500000 instructions simulated : ctaid=(2,8,0) tid=(15,3,0)
GPGPU-Sim uArch: cycles simulated: 59500  inst.: 33500096 (ipc=563.0) sim_rate=213376 (inst/sec) elapsed = 0:0:02:37 / Fri Jan 11 07:43:48 2019
GPGPU-Sim PTX: 33600000 instructions simulated : ctaid=(0,3,0) tid=(15,3,0)
GPGPU-Sim PTX: 33700000 instructions simulated : ctaid=(1,10,0) tid=(15,5,0)
GPGPU-Sim PTX: 33800000 instructions simulated : ctaid=(7,10,0) tid=(15,1,0)
GPGPU-Sim uArch: cycles simulated: 60000  inst.: 33777088 (ipc=563.0) sim_rate=213779 (inst/sec) elapsed = 0:0:02:38 / Fri Jan 11 07:43:49 2019
GPGPU-Sim PTX: 33900000 instructions simulated : ctaid=(1,8,0) tid=(15,3,0)
GPGPU-Sim PTX: 34000000 instructions simulated : ctaid=(4,0,0) tid=(15,5,0)
GPGPU-Sim uArch: cycles simulated: 60500  inst.: 34070752 (ipc=563.2) sim_rate=214281 (inst/sec) elapsed = 0:0:02:39 / Fri Jan 11 07:43:50 2019
GPGPU-Sim PTX: 34100000 instructions simulated : ctaid=(7,10,0) tid=(15,5,0)
GPGPU-Sim PTX: 34200000 instructions simulated : ctaid=(5,1,0) tid=(15,7,0)
GPGPU-Sim PTX: 34300000 instructions simulated : ctaid=(2,1,0) tid=(15,7,0)
GPGPU-Sim uArch: cycles simulated: 61000  inst.: 34363552 (ipc=563.3) sim_rate=214772 (inst/sec) elapsed = 0:0:02:40 / Fri Jan 11 07:43:51 2019
GPGPU-Sim PTX: 34400000 instructions simulated : ctaid=(7,10,0) tid=(15,7,0)
GPGPU-Sim PTX: 34500000 instructions simulated : ctaid=(1,0,0) tid=(15,5,0)
GPGPU-Sim PTX: 34600000 instructions simulated : ctaid=(2,8,0) tid=(15,1,0)
GPGPU-Sim uArch: cycles simulated: 61500  inst.: 34634336 (ipc=563.2) sim_rate=213792 (inst/sec) elapsed = 0:0:02:42 / Fri Jan 11 07:43:53 2019
GPGPU-Sim PTX: 34700000 instructions simulated : ctaid=(7,1,0) tid=(15,7,0)
GPGPU-Sim PTX: 34800000 instructions simulated : ctaid=(7,12,0) tid=(15,1,0)
GPGPU-Sim PTX: 34900000 instructions simulated : ctaid=(5,2,0) tid=(15,1,0)
GPGPU-Sim uArch: cycles simulated: 62000  inst.: 34920192 (ipc=563.2) sim_rate=214234 (inst/sec) elapsed = 0:0:02:43 / Fri Jan 11 07:43:54 2019
GPGPU-Sim PTX: 35000000 instructions simulated : ctaid=(2,7,0) tid=(15,1,0)
GPGPU-Sim PTX: 35100000 instructions simulated : ctaid=(3,0,0) tid=(15,3,0)
GPGPU-Sim PTX: 35200000 instructions simulated : ctaid=(6,0,0) tid=(15,1,0)
GPGPU-Sim uArch: cycles simulated: 62500  inst.: 35202144 (ipc=563.2) sim_rate=214647 (inst/sec) elapsed = 0:0:02:44 / Fri Jan 11 07:43:55 2019
GPGPU-Sim PTX: 35300000 instructions simulated : ctaid=(5,0,0) tid=(15,3,0)
GPGPU-Sim PTX: 35400000 instructions simulated : ctaid=(6,2,0) tid=(15,3,0)
GPGPU-Sim PTX: 35500000 instructions simulated : ctaid=(0,0,0) tid=(15,1,0)
GPGPU-Sim uArch: cycles simulated: 63000  inst.: 35494112 (ipc=563.4) sim_rate=213819 (inst/sec) elapsed = 0:0:02:46 / Fri Jan 11 07:43:57 2019
GPGPU-Sim PTX: 35600000 instructions simulated : ctaid=(2,2,0) tid=(15,7,0)
GPGPU-Sim PTX: 35700000 instructions simulated : ctaid=(7,7,0) tid=(15,5,0)
GPGPU-Sim uArch: cycles simulated: 63500  inst.: 35758784 (ipc=563.1) sim_rate=214124 (inst/sec) elapsed = 0:0:02:47 / Fri Jan 11 07:43:58 2019
GPGPU-Sim PTX: 35800000 instructions simulated : ctaid=(4,10,0) tid=(15,3,0)
GPGPU-Sim PTX: 35900000 instructions simulated : ctaid=(4,4,0) tid=(15,7,0)
GPGPU-Sim PTX: 36000000 instructions simulated : ctaid=(1,2,0) tid=(15,1,0)
GPGPU-Sim uArch: cycles simulated: 64000  inst.: 36069248 (ipc=563.6) sim_rate=214697 (inst/sec) elapsed = 0:0:02:48 / Fri Jan 11 07:43:59 2019
GPGPU-Sim PTX: 36100000 instructions simulated : ctaid=(0,9,0) tid=(15,7,0)
GPGPU-Sim PTX: 36200000 instructions simulated : ctaid=(3,9,0) tid=(15,1,0)
GPGPU-Sim PTX: 36300000 instructions simulated : ctaid=(4,5,0) tid=(15,7,0)
GPGPU-Sim uArch: cycles simulated: 64500  inst.: 36348960 (ipc=563.5) sim_rate=213817 (inst/sec) elapsed = 0:0:02:50 / Fri Jan 11 07:44:01 2019
GPGPU-Sim PTX: 36400000 instructions simulated : ctaid=(5,14,0) tid=(15,1,0)
GPGPU-Sim PTX: 36500000 instructions simulated : ctaid=(3,5,0) tid=(15,5,0)
GPGPU-Sim PTX: 36600000 instructions simulated : ctaid=(1,13,0) tid=(15,5,0)
GPGPU-Sim uArch: cycles simulated: 65000  inst.: 36644928 (ipc=563.8) sim_rate=214297 (inst/sec) elapsed = 0:0:02:51 / Fri Jan 11 07:44:02 2019
GPGPU-Sim PTX: 36700000 instructions simulated : ctaid=(0,11,0) tid=(15,1,0)
GPGPU-Sim PTX: 36800000 instructions simulated : ctaid=(1,3,0) tid=(15,3,0)
GPGPU-Sim PTX: 36900000 instructions simulated : ctaid=(7,1,0) tid=(15,5,0)
GPGPU-Sim uArch: cycles simulated: 65500  inst.: 36914432 (ipc=563.6) sim_rate=214618 (inst/sec) elapsed = 0:0:02:52 / Fri Jan 11 07:44:03 2019
GPGPU-Sim PTX: 37000000 instructions simulated : ctaid=(4,7,0) tid=(15,7,0)
GPGPU-Sim PTX: 37100000 instructions simulated : ctaid=(3,3,0) tid=(15,5,0)
GPGPU-Sim PTX: 37200000 instructions simulated : ctaid=(5,0,0) tid=(15,1,0)
GPGPU-Sim uArch: cycles simulated: 66000  inst.: 37201280 (ipc=563.7) sim_rate=213800 (inst/sec) elapsed = 0:0:02:54 / Fri Jan 11 07:44:05 2019
GPGPU-Sim PTX: 37300000 instructions simulated : ctaid=(2,10,0) tid=(15,1,0)
GPGPU-Sim PTX: 37400000 instructions simulated : ctaid=(2,4,0) tid=(15,3,0)
GPGPU-Sim PTX: 37500000 instructions simulated : ctaid=(5,1,0) tid=(15,3,0)
GPGPU-Sim uArch: cycles simulated: 66500  inst.: 37482784 (ipc=563.7) sim_rate=214187 (inst/sec) elapsed = 0:0:02:55 / Fri Jan 11 07:44:06 2019
GPGPU-Sim PTX: 37600000 instructions simulated : ctaid=(6,0,0) tid=(15,1,0)
GPGPU-Sim PTX: 37700000 instructions simulated : ctaid=(6,0,0) tid=(15,7,0)
GPGPU-Sim PTX: 37800000 instructions simulated : ctaid=(0,1,0) tid=(15,3,0)
GPGPU-Sim uArch: cycles simulated: 67000  inst.: 37778144 (ipc=563.9) sim_rate=214648 (inst/sec) elapsed = 0:0:02:56 / Fri Jan 11 07:44:07 2019
GPGPU-Sim PTX: 37900000 instructions simulated : ctaid=(2,3,0) tid=(15,5,0)
GPGPU-Sim PTX: 38000000 instructions simulated : ctaid=(1,10,0) tid=(15,1,0)
GPGPU-Sim uArch: cycles simulated: 67500  inst.: 38045504 (ipc=563.6) sim_rate=213738 (inst/sec) elapsed = 0:0:02:58 / Fri Jan 11 07:44:09 2019
GPGPU-Sim PTX: 38100000 instructions simulated : ctaid=(1,11,0) tid=(15,3,0)
GPGPU-Sim PTX: 38200000 instructions simulated : ctaid=(6,12,0) tid=(15,1,0)
GPGPU-Sim PTX: 38300000 instructions simulated : ctaid=(6,6,0) tid=(15,5,0)
GPGPU-Sim uArch: cycles simulated: 68000  inst.: 38345280 (ipc=563.9) sim_rate=214219 (inst/sec) elapsed = 0:0:02:59 / Fri Jan 11 07:44:10 2019
GPGPU-Sim PTX: 38400000 instructions simulated : ctaid=(2,3,0) tid=(15,1,0)
GPGPU-Sim PTX: 38500000 instructions simulated : ctaid=(5,4,0) tid=(15,3,0)
GPGPU-Sim PTX: 38600000 instructions simulated : ctaid=(5,3,0) tid=(15,5,0)
GPGPU-Sim uArch: cycles simulated: 68500  inst.: 38627616 (ipc=563.9) sim_rate=214597 (inst/sec) elapsed = 0:0:03:00 / Fri Jan 11 07:44:11 2019
GPGPU-Sim PTX: 38700000 instructions simulated : ctaid=(5,1,0) tid=(15,3,0)
GPGPU-Sim PTX: 38800000 instructions simulated : ctaid=(5,0,0) tid=(15,3,0)
GPGPU-Sim PTX: 38900000 instructions simulated : ctaid=(3,7,0) tid=(15,3,0)
GPGPU-Sim uArch: cycles simulated: 69000  inst.: 38902464 (ipc=563.8) sim_rate=214930 (inst/sec) elapsed = 0:0:03:01 / Fri Jan 11 07:44:12 2019
GPGPU-Sim PTX: 39000000 instructions simulated : ctaid=(0,1,0) tid=(15,7,0)
GPGPU-Sim PTX: 39100000 instructions simulated : ctaid=(4,3,0) tid=(15,7,0)
GPGPU-Sim PTX: 39200000 instructions simulated : ctaid=(1,8,0) tid=(15,3,0)
GPGPU-Sim uArch: cycles simulated: 69500  inst.: 39188256 (ipc=563.9) sim_rate=214143 (inst/sec) elapsed = 0:0:03:03 / Fri Jan 11 07:44:14 2019
GPGPU-Sim PTX: 39300000 instructions simulated : ctaid=(1,4,0) tid=(15,7,0)
GPGPU-Sim PTX: 39400000 instructions simulated : ctaid=(4,7,0) tid=(15,3,0)
GPGPU-Sim PTX: 39500000 instructions simulated : ctaid=(2,7,0) tid=(15,3,0)
GPGPU-Sim uArch: cycles simulated: 70000  inst.: 39497760 (ipc=564.3) sim_rate=214661 (inst/sec) elapsed = 0:0:03:04 / Fri Jan 11 07:44:15 2019
GPGPU-Sim PTX: 39600000 instructions simulated : ctaid=(4,12,0) tid=(15,1,0)
GPGPU-Sim PTX: 39700000 instructions simulated : ctaid=(0,10,0) tid=(15,1,0)
GPGPU-Sim PTX: 39800000 instructions simulated : ctaid=(0,6,0) tid=(15,3,0)
GPGPU-Sim uArch: cycles simulated: 70500  inst.: 39785152 (ipc=564.3) sim_rate=213898 (inst/sec) elapsed = 0:0:03:06 / Fri Jan 11 07:44:17 2019
GPGPU-Sim PTX: 39900000 instructions simulated : ctaid=(7,11,0) tid=(15,1,0)
GPGPU-Sim uArch: Shader 3 finished CTA #0 (70738,0), 7 CTAs running
GPGPU-Sim uArch: core:  3, cta: 0 initialized @(70739,0)
GPGPU-Sim uArch: Shader 0 finished CTA #0 (70762,0), 7 CTAs running
GPGPU-Sim uArch: core:  0, cta: 0 initialized @(70763,0)
GPGPU-Sim PTX: 40000000 instructions simulated : ctaid=(1,7,0) tid=(15,3,0)
GPGPU-Sim uArch: Shader 14 finished CTA #0 (70947,0), 7 CTAs running
GPGPU-Sim uArch: core: 14, cta: 0 initialized @(70948,0)
GPGPU-Sim PTX: 40100000 instructions simulated : ctaid=(7,5,0) tid=(15,3,0)
GPGPU-Sim uArch: cycles simulated: 71000  inst.: 40074048 (ipc=564.4) sim_rate=214299 (inst/sec) elapsed = 0:0:03:07 / Fri Jan 11 07:44:18 2019
GPGPU-Sim uArch: Shader 11 finished CTA #0 (71040,0), 7 CTAs running
GPGPU-Sim uArch: core: 11, cta: 0 initialized @(71041,0)
GPGPU-Sim PTX: 40200000 instructions simulated : ctaid=(5,14,0) tid=(15,5,0)
GPGPU-Sim PTX: 40300000 instructions simulated : ctaid=(7,12,0) tid=(15,1,0)
GPGPU-Sim uArch: Shader 6 finished CTA #0 (71333,0), 7 CTAs running
GPGPU-Sim uArch: core:  6, cta: 0 initialized @(71334,0)
GPGPU-Sim uArch: Shader 4 finished CTA #0 (71372,0), 7 CTAs running
GPGPU-Sim uArch: core:  4, cta: 0 initialized @(71373,0)
GPGPU-Sim uArch: Shader 9 finished CTA #0 (71478,0), 7 CTAs running
GPGPU-Sim uArch: core:  9, cta: 0 initialized @(71479,0)
GPGPU-Sim PTX: 40400000 instructions simulated : ctaid=(5,9,0) tid=(15,1,0)
[...]
gpgpu_stall_shd_mem[gl_mem][bk_conf] = 0
gpgpu_stall_shd_mem[gl_mem][coal_stall] = 4101
gpgpu_stall_shd_mem[gl_mem][data_port_stall] = 0
gpgpu_stall_shd_mem[g_mem_ld][mshr_rc] = 0
gpgpu_stall_shd_mem[g_mem_ld][icnt_rc] = 0
gpgpu_stall_shd_mem[g_mem_ld][wb_icnt_rc] = 0
gpgpu_stall_shd_mem[g_mem_ld][wb_rsrv_fail] = 0
gpgpu_stall_shd_mem[g_mem_st][mshr_rc] = 0
gpgpu_stall_shd_mem[g_mem_st][icnt_rc] = 0
gpgpu_stall_shd_mem[g_mem_st][wb_icnt_rc] = 0
gpgpu_stall_shd_mem[g_mem_st][wb_rsrv_fail] = 0
gpgpu_stall_shd_mem[l_mem_ld][mshr_rc] = 0
gpgpu_stall_shd_mem[l_mem_ld][icnt_rc] = 0
gpgpu_stall_shd_mem[l_mem_ld][wb_icnt_rc] = 0
gpgpu_stall_shd_mem[l_mem_ld][wb_rsrv_fail] = 0
gpgpu_stall_shd_mem[l_mem_st][mshr_rc] = 0
gpgpu_stall_shd_mem[l_mem_st][icnt_rc] = 0
gpgpu_stall_shd_mem[l_mem_ld][wb_icnt_rc] = 0
gpgpu_stall_shd_mem[l_mem_ld][wb_rsrv_fail] = 0
gpu_reg_bank_conflict_stalls = 0
Warp Occupancy Distribution:
Stall:1901587	W0_Idle:220430	W0_Scoreboard:823761	W1:0	W2:0	W3:0	W4:0	W5:0	W6:0	W7:0	W8:0	W9:0	W10:0	W11:0	W12:0	W13:0	W14:0	W15:0	W16:0	W17:0	W18:0	W19:0	W20:0	W21:0	W22:0	W23:0	W24:0	W25:0	W26:0	W27:0	W28:0	W29:0	W30:0	W31:0	W32:3938304
traffic_breakdown_coretomem[CONST_ACC_R] = 6120 {8:765,}
traffic_breakdown_coretomem[GLOBAL_ACC_R] = 32544 {8:4068,}
traffic_breakdown_coretomem[GLOBAL_ACC_W] = 294912 {72:4096,}
traffic_breakdown_coretomem[INST_ACC_R] = 600 {8:75,}
traffic_breakdown_memtocore[CONST_ACC_R] = 55080 {72:765,}
traffic_breakdown_memtocore[GLOBAL_ACC_R] = 553248 {136:4068,}
traffic_breakdown_memtocore[GLOBAL_ACC_W] = 32768 {8:4096,}
traffic_breakdown_memtocore[INST_ACC_R] = 10200 {136:75,}
maxmrqlatency = 143 
maxdqlatency = 0 
maxmflatency = 436 
averagemflatency = 183 
max_icnt2mem_latency = 122 
max_icnt2sh_latency = 241537 
mrq_lat_table:1895 	12 	13 	26 	26 	38 	63 	6 	0 	0 	0 	0 	0 	0 	0 	0 	0 	0 	0 	0 	0 	0 	0 	0 	0 	0 	0 	0 	0 	0 	0 	0 	
dq_lat_table:0 	0 	0 	0 	0 	0 	0 	0 	0 	0 	0 	0 	0 	0 	0 	0 	0 	0 	0 	0 	0 	0 	0 	0 	0 	0 	0 	0 	0 	0 	0 	0 	
mf_lat_table:0 	0 	0 	0 	0 	0 	0 	6643 	2286 	0 	0 	0 	0 	0 	0 	0 	0 	0 	0 	0 	0 	0 	0 	0 	0 	0 	0 	0 	0 	0 	0 	0 	
icnt2mem_lat_table:0 	0 	0 	7731 	1113 	130 	30 	0 	0 	0 	0 	0 	0 	0 	0 	0 	0 	0 	0 	0 	0 	0 	0 	0 	
icnt2sh_lat_table:0 	0 	0 	2336 	2242 	238 	17 	0 	0 	0 	0 	0 	0 	0 	0 	0 	1730 	2366 	0 	0 	0 	0 	0 	0 	
mf_lat_pw_table:0 	0 	0 	0 	0 	0 	0 	292 	18 	0 	0 	0 	0 	0 	0 	0 	0 	0 	0 	0 	0 	0 	0 	0 	0 	0 	0 	0 	0 	0 	0 	0 	
maximum concurrent accesses to same row:
dram[0]:         1         0         0         0         0         0         0         0         0         0         0         0         0         0         0         0 
dram[1]:         2         0         0         0         0         0         0         0         0         0         0         0         0         0         0         0 
dram[2]:         2         0         0         0         0         0         0         0         0         0         0         0         0         0         0         0 
dram[3]:         0         0         0         0         0         0         0         0         0         0         0         0         0         0         0         0 
dram[4]:         0         0         0         0         0         0         0         0         0         0         0         0         0         0         0         0 
dram[5]:         0         0         0         0         0         0         0         0         0         0         0         0         0         0         0         0 
maximum service time to same row:
dram[0]:     59875         0         0         0     69354     69369     69338     69332     71731     72824    109093    108426    151549    151501    185812    198706 
dram[1]:      2856         0         0         0     69335     69329     69346     69351     72144     72329    109876    109590    151797    157069    198644    199284 
dram[2]:     69029         0         0         0     69371     69357     69335     69341     72826     71732    108429    119949    151504    152279    198707    187288 
dram[3]:         0         0         0         0     69325     69331     69353     69347     72331     72147    109591    120250    157072    153366    199285    199809 
dram[4]:         0         0         0         0     69360     69367     69343     69337     72121     75607    109091    119197    151547    153631    185810    199544 
dram[5]:         0         0         0         0     69332     69326     69344     69355     72210     76213    109874    120376    151794    158965    198641    200129 
average row accesses per activate:
dram[0]:  1.250000       inf      -nan      -nan 10.000000 10.000000 32.000000 32.000000 32.000000 32.000000 32.000000 32.000000 32.000000 32.000000 32.000000 32.000000 
dram[1]:  2.500000       inf      -nan      -nan 10.000000 10.000000 32.000000 32.000000 32.000000 32.000000 32.000000 32.000000 32.000000 32.000000 32.000000 32.000000 
dram[2]:  3.000000       inf      -nan      -nan 10.000000 12.000000 32.000000 32.000000 32.000000 32.000000 32.000000 32.000000 32.000000 32.000000 32.000000 32.000000 
dram[3]:       inf       inf      -nan      -nan 10.000000 12.000000 32.000000 32.000000 32.000000 32.000000 32.000000 32.000000 32.000000 32.000000 32.000000 32.000000 
dram[4]:       inf       inf      -nan      -nan 10.000000 12.000000 32.000000 32.000000 32.000000 32.000000 32.000000 32.000000 32.000000 32.000000 32.000000 32.000000 
dram[5]:       inf       inf      -nan      -nan 10.000000 12.000000 32.000000 32.000000 32.000000 32.000000 32.000000 32.000000 32.000000 32.000000 32.000000 32.000000 
average row locality = 2079/79 = 26.316456
number of total memory accesses made:
dram[0]:         0         0         0         0         0         0         0         0         0         0         0         0         0         0         0         0 
dram[1]:         0         0         0         0         0         0         0         0         0         0         0         0         0         0         0         0 
dram[2]:         0         0         0         0         0         0         0         0         0         0         0         0         0         0         0         0 
dram[3]:         0         0         0         0         0         0         0         0         0         0         0         0         0         0         0         0 
dram[4]:         0         0         0         0         0         0         0         0         0         0         0         0         0         0         0         0 
dram[5]:         0         0         0         0         0         0         0         0         0         0         0         0         0         0         0         0 
total accesses: 0
min_bank_accesses = 0!
min_chip_accesses = 0!
number of total read accesses:
dram[0]:         5         2         0         0        10        10        32        32        32        32        32        32        32        32        32        32 
dram[1]:         5         2         0         0        10        10        32        32        32        32        32        32        32        32        32        32 
dram[2]:         3         2         0         0        10        12        32        32        32        32        32        32        32        32        32        32 
dram[3]:         2         2         0         0        10        12        32        32        32        32        32        32        32        32        32        32 
dram[4]:         2         2         0         0        10        12        32        32        32        32        32        32        32        32        32        32 
dram[5]:         2         2         0         0        10        12        32        32        32        32        32        32        32        32        32        32 
total reads: 2079
min_bank_accesses = 0!
chip skew: 347/346 = 1.00
number of total write accesses:
dram[0]:         0         0         0         0         0         0         0         0         0         0         0         0         0         0         0         0 
dram[1]:         0         0         0         0         0         0         0         0         0         0         0         0         0         0         0         0 
dram[2]:         0         0         0         0         0         0         0         0         0         0         0         0         0         0         0         0 
dram[3]:         0         0         0         0         0         0         0         0         0         0         0         0         0         0         0         0 
dram[4]:         0         0         0         0         0         0         0         0         0         0         0         0         0         0         0         0 
dram[5]:         0         0         0         0         0         0         0         0         0         0         0         0         0         0         0         0 
total reads: 0
min_bank_accesses = 0!
min_chip_accesses = 0!
average mf latency per bank:
dram[0]:       3120      5668    none      none         962       841       889       795       698       698       693       697       698       698       700       690
dram[1]:       3662      5759    none      none         796       853       785       808       697       688       698       697       697       699       698       698
dram[2]:       3889      5945    none      none         789       851       781       865       698       698       697       697       699       698       694       699
dram[3]:       5820      5902    none      none         774       825       791       829       693       697       698       697       698       693       699       694
dram[4]:       5747      6002    none      none         995       812       905       791       697       698       693       697       697       697       698       695
dram[5]:       5689      5736    none      none         744       799       758       798       697       694       697       697       693       698       693       699
maximum mf latency per bank:
dram[0]:        282       272         0         0       355       306       436       414       268       269       273       267       273       268       273       278
dram[1]:        409       269         0         0       309       306       365       386       268       268       273       272       273       268       273       268
dram[2]:        269       271         0         0       319       342       404       431       273       273       272       268       273       268       283       268
dram[3]:        276       269         0         0       304       335       353       414       273       273       273       268       273       268       273       268
dram[4]:        272       281         0         0       368       331       430       427       268       268       268       268       268       268       268       268
dram[5]:        270       271         0         0       322       306       372       406       268       268       268       270       268       271       268       278
Memory Partition 0: 
Cache L2_bank_000:
MSHR contents

Cache L2_bank_001:
MSHR contents

In Dram Latency Queue (total = 0): 
DRAM[0]: 16 bks, busW=4 BL=8 CL=12, tRRD=2 tCCD=6, tRCD=12 tRAS=28 tRP=12 tRC=40
n_cmd=318829 n_nop=318115 n_act=17 n_pre=3 n_req=347 n_rd=694 n_write=0 bw_util=0.004353
n_activity=5108 dram_eff=0.2717
bk0: 10a 318723i bk1: 4a 318805i bk2: 0a 318829i bk3: 0a 318830i bk4: 20a 318759i bk5: 20a 318733i bk6: 64a 318568i bk7: 64a 318504i bk8: 64a 318685i bk9: 64a 318687i bk10: 64a 318689i bk11: 64a 318687i bk12: 64a 318683i bk13: 64a 318686i bk14: 64a 318686i bk15: 64a 318674i 
dram_util_bins: 0 0 0 0 0 0 0 0 0 0
dram_eff_bins: 0 0 0 0 0 0 0 0 0 0
mrqq: max=15 avg=0.00583698
Memory Partition 1: 
Cache L2_bank_002:
MSHR contents

Cache L2_bank_003:
MSHR contents

In Dram Latency Queue (total = 0): 
DRAM[1]: 16 bks, busW=4 BL=8 CL=12, tRRD=2 tCCD=6, tRCD=12 tRAS=28 tRP=12 tRC=40
n_cmd=318829 n_nop=318117 n_act=16 n_pre=2 n_req=347 n_rd=694 n_write=0 bw_util=0.004353
n_activity=5138 dram_eff=0.2701
bk0: 10a 318744i bk1: 4a 318804i bk2: 0a 318827i bk3: 0a 318829i bk4: 20a 318755i bk5: 20a 318732i bk6: 64a 318592i bk7: 64a 318535i bk8: 64a 318686i bk9: 64a 318691i bk10: 64a 318690i bk11: 64a 318689i bk12: 64a 318687i bk13: 64a 318684i bk14: 64a 318686i bk15: 64a 318686i 
dram_util_bins: 0 0 0 0 0 0 0 0 0 0
dram_eff_bins: 0 0 0 0 0 0 0 0 0 0
mrqq: max=14 avg=0.00493682
Memory Partition 2: 
Cache L2_bank_004:
MSHR contents

Cache L2_bank_005:
MSHR contents

In Dram Latency Queue (total = 0): 
DRAM[2]: 16 bks, busW=4 BL=8 CL=12, tRRD=2 tCCD=6, tRCD=12 tRAS=28 tRP=12 tRC=40
n_cmd=318829 n_nop=318119 n_act=15 n_pre=1 n_req=347 n_rd=694 n_write=0 bw_util=0.004353
n_activity=5017 dram_eff=0.2767
bk0: 6a 318778i bk1: 4a 318807i bk2: 0a 318827i bk3: 0a 318829i bk4: 20a 318757i bk5: 24a 318703i bk6: 64a 318570i bk7: 64a 318510i bk8: 64a 318690i bk9: 64a 318688i bk10: 64a 318687i bk11: 64a 318688i bk12: 64a 318684i bk13: 64a 318687i bk14: 64a 318675i bk15: 64a 318684i 
dram_util_bins: 0 0 0 0 0 0 0 0 0 0
dram_eff_bins: 0 0 0 0 0 0 0 0 0 0
mrqq: max=16 avg=0.00700062
Memory Partition 3: 
Cache L2_bank_006:
MSHR contents

Cache L2_bank_007:
MSHR contents

In Dram Latency Queue (total = 0): 
DRAM[3]: 16 bks, busW=4 BL=8 CL=12, tRRD=2 tCCD=6, tRCD=12 tRAS=28 tRP=12 tRC=40
n_cmd=318829 n_nop=318123 n_act=14 n_pre=0 n_req=346 n_rd=692 n_write=0 bw_util=0.004341
n_activity=4966 dram_eff=0.2787
bk0: 4a 318805i bk1: 4a 318805i bk2: 0a 318825i bk3: 0a 318826i bk4: 20a 318770i bk5: 24a 318734i bk6: 64a 318617i bk7: 64a 318536i bk8: 64a 318690i bk9: 64a 318690i bk10: 64a 318691i bk11: 64a 318684i bk12: 64a 318686i bk13: 64a 318684i bk14: 64a 318683i bk15: 64a 318673i 
dram_util_bins: 0 0 0 0 0 0 0 0 0 0
dram_eff_bins: 0 0 0 0 0 0 0 0 0 0
mrqq: max=15 avg=0.00557038
Memory Partition 4: 
Cache L2_bank_008:
MSHR contents

Cache L2_bank_009:
MSHR contents

In Dram Latency Queue (total = 0): 
DRAM[4]: 16 bks, busW=4 BL=8 CL=12, tRRD=2 tCCD=6, tRCD=12 tRAS=28 tRP=12 tRC=40
n_cmd=318829 n_nop=318123 n_act=14 n_pre=0 n_req=346 n_rd=692 n_write=0 bw_util=0.004341
n_activity=4996 dram_eff=0.277
bk0: 4a 318804i bk1: 4a 318809i bk2: 0a 318829i bk3: 0a 318830i bk4: 20a 318762i bk5: 24a 318718i bk6: 64a 318563i bk7: 64a 318487i bk8: 64a 318690i bk9: 64a 318687i bk10: 64a 318689i bk11: 64a 318687i bk12: 64a 318686i bk13: 64a 318685i bk14: 64a 318682i bk15: 64a 318677i 
dram_util_bins: 0 0 0 0 0 0 0 0 0 0
dram_eff_bins: 0 0 0 0 0 0 0 0 0 0
mrqq: max=16 avg=0.0073519
Memory Partition 5: 
Cache L2_bank_010:
MSHR contents

Cache L2_bank_011:
MSHR contents

In Dram Latency Queue (total = 0): 
DRAM[5]: 16 bks, busW=4 BL=8 CL=12, tRRD=2 tCCD=6, tRCD=12 tRAS=28 tRP=12 tRC=40
n_cmd=318829 n_nop=318123 n_act=14 n_pre=0 n_req=346 n_rd=692 n_write=0 bw_util=0.004341
n_activity=5033 dram_eff=0.275
bk0: 4a 318806i bk1: 4a 318806i bk2: 0a 318825i bk3: 0a 318828i bk4: 20a 318750i bk5: 24a 318736i bk6: 64a 318588i bk7: 64a 318531i bk8: 64a 318690i bk9: 64a 318688i bk10: 64a 318688i bk11: 64a 318686i bk12: 64a 318689i bk13: 64a 318688i bk14: 64a 318687i bk15: 64a 318675i 
dram_util_bins: 0 0 0 0 0 0 0 0 0 0
dram_eff_bins: 0 0 0 0 0 0 0 0 0 0
mrqq: max=16 avg=0.00615377

========= L2 cache stats =========
L2_cache_bank[0]: Access = 782, Miss = 175, Miss_rate = 0.224, Pending_hits = 15, Reservation_fails = 505
L2_cache_bank[1]: Access = 736, Miss = 172, Miss_rate = 0.234, Pending_hits = 6, Reservation_fails = 164
L2_cache_bank[2]: Access = 798, Miss = 175, Miss_rate = 0.219, Pending_hits = 15, Reservation_fails = 451
L2_cache_bank[3]: Access = 738, Miss = 172, Miss_rate = 0.233, Pending_hits = 6, Reservation_fails = 169
L2_cache_bank[4]: Access = 752, Miss = 173, Miss_rate = 0.230, Pending_hits = 9, Reservation_fails = 279
L2_cache_bank[5]: Access = 746, Miss = 174, Miss_rate = 0.233, Pending_hits = 6, Reservation_fails = 213
L2_cache_bank[6]: Access = 739, Miss = 172, Miss_rate = 0.233, Pending_hits = 6, Reservation_fails = 180
L2_cache_bank[7]: Access = 744, Miss = 174, Miss_rate = 0.234, Pending_hits = 6, Reservation_fails = 190
L2_cache_bank[8]: Access = 739, Miss = 172, Miss_rate = 0.233, Pending_hits = 6, Reservation_fails = 174
L2_cache_bank[9]: Access = 745, Miss = 174, Miss_rate = 0.234, Pending_hits = 6, Reservation_fails = 209
L2_cache_bank[10]: Access = 738, Miss = 172, Miss_rate = 0.233, Pending_hits = 6, Reservation_fails = 173
L2_cache_bank[11]: Access = 747, Miss = 174, Miss_rate = 0.233, Pending_hits = 6, Reservation_fails = 163
L2_total_cache_accesses = 9004
L2_total_cache_misses = 2079
L2_total_cache_miss_rate = 0.2309
L2_total_cache_pending_hits = 93
L2_total_cache_reservation_fails = 2870
L2_total_cache_breakdown:
	L2_cache_stats_breakdown[GLOBAL_ACC_R][HIT] = 2020
	L2_cache_stats_breakdown[GLOBAL_ACC_R][MISS] = 2048
	L2_cache_stats_breakdown[CONST_ACC_R][HIT] = 661
	L2_cache_stats_breakdown[CONST_ACC_R][HIT_RESERVED] = 78
	L2_cache_stats_breakdown[CONST_ACC_R][MISS] = 26
	L2_cache_stats_breakdown[CONST_ACC_R][RESERVATION_FAIL] = 2354
	L2_cache_stats_breakdown[GLOBAL_ACC_W][HIT] = 4096
	L2_cache_stats_breakdown[INST_ACC_R][HIT] = 55
	L2_cache_stats_breakdown[INST_ACC_R][HIT_RESERVED] = 15
	L2_cache_stats_breakdown[INST_ACC_R][MISS] = 5
	L2_cache_stats_breakdown[INST_ACC_R][RESERVATION_FAIL] = 516
L2_cache_data_port_util = 0.006
L2_cache_fill_port_util = 0.003

icnt_total_pkts_mem_to_simt=27106
icnt_total_pkts_simt_to_mem=17196
LD_mem_lat_dist  0 0 0 0 0 0 0 0 0 0 0 0 0 0 0 0 0 0 0 0 0 0 0 0 0 0 0
ST_mem_lat_dist  0 0 0 0 0 0 0 0 0 0 0 0 0 0 0 0 0 0 0 0 0 0 0 0 0 0 0
----------------------------Interconnect-DETAILS--------------------------------
Class 0:
Packet latency average = 10.9429
	minimum = 6
	maximum = 96
Network latency average = 9.53498
	minimum = 6
	maximum = 77
Slowest packet = 2697
Flit latency average = 8.32827
	minimum = 6
	maximum = 73
Slowest flit = 6089
Fragmentation average = 0.00172146
	minimum = 0
	maximum = 28
Injected packet rate average = 0.00276132
	minimum = 0.00246752 (at node 5)
	maximum = 0.00330383 (at node 17)
Accepted packet rate average = 0.00276132
	minimum = 0.00246752 (at node 5)
	maximum = 0.00330383 (at node 17)
Injected flit rate average = 0.0067932
	minimum = 0.00471975 (at node 5)
	maximum = 0.0101433 (at node 17)
Accepted flit rate average= 0.0067932
	minimum = 0.00586243 (at node 16)
	maximum = 0.0078911 (at node 11)
Injected packet length average = 2.46013
Accepted packet length average = 2.46013
Total in-flight flits = 0 (0 measured)
====== Overall Traffic Statistics ======
====== Traffic class 0 ======
Packet latency average = 10.9429 (1 samples)
	minimum = 6 (1 samples)
	maximum = 96 (1 samples)
Network latency average = 9.53498 (1 samples)
	minimum = 6 (1 samples)
	maximum = 77 (1 samples)
Flit latency average = 8.32827 (1 samples)
	minimum = 6 (1 samples)
	maximum = 73 (1 samples)
Fragmentation average = 0.00172146 (1 samples)
	minimum = 0 (1 samples)
	maximum = 28 (1 samples)
Injected packet rate average = 0.00276132 (1 samples)
	minimum = 0.00246752 (1 samples)
	maximum = 0.00330383 (1 samples)
Accepted packet rate average = 0.00276132 (1 samples)
	minimum = 0.00246752 (1 samples)
	maximum = 0.00330383 (1 samples)
Injected flit rate average = 0.0067932 (1 samples)
	minimum = 0.00471975 (1 samples)
	maximum = 0.0101433 (1 samples)
Accepted flit rate average = 0.0067932 (1 samples)
	minimum = 0.00586243 (1 samples)
	maximum = 0.0078911 (1 samples)
Injected packet size average = 2.46013 (1 samples)
Accepted packet size average = 2.46013 (1 samples)
Hops average = 1 (1 samples)
----------------------------END-of-Interconnect-DETAILS-------------------------


gpgpu_simulation_time = 0 days, 0 hrs, 9 min, 51 sec (591 sec)
gpgpu_simulation_rate = 213130 (inst/sec)
gpgpu_simulation_rate = 408 (cycle/sec)
IO:      0.000000
GPU:     590.834465
Copy:    0.055661
Compute: 0.000105
