

        *** GPGPU-Sim Simulator Version 3.2.2  [build 0] ***


GPGPU-Sim PTX: simulation mode 0 (can change with PTX_SIM_MODE_FUNC environment variable:
               1=functional simulation only, 0=detailed performance simulator)
GPGPU-Sim: Configuration options:

-network_mode                           1 # Interconnection network mode
-inter_config_file   config_fermi_islip.icnt # Interconnection network config file
-gpgpu_ptx_use_cuobjdump                    1 # Use cuobjdump to extract ptx and sass from binaries
-gpgpu_experimental_lib_support                    0 # Try to extract code from cuda libraries [Broken because of unknown cudaGetExportTable]
-gpgpu_ptx_convert_to_ptxplus                    0 # Convert SASS (native ISA) to ptxplus and run ptxplus
-gpgpu_ptx_force_max_capability                   20 # Force maximum compute capability
-gpgpu_ptx_inst_debug_to_file                    0 # Dump executed instructions' debug information to file
-gpgpu_ptx_inst_debug_file       inst_debug.txt # Executed instructions' debug output file
-gpgpu_ptx_inst_debug_thread_uid                    1 # Thread UID for executed instructions' debug output
-gpgpu_simd_model                       1 # 1 = post-dominator
-gpgpu_shader_core_pipeline              1536:32 # shader core pipeline config, i.e., {<nthread>:<warpsize>}
-gpgpu_tex_cache:l1  4:128:24,L:R:m:N:L,F:128:4,128:2 # per-shader L1 texture cache  (READ-ONLY) config  {<nsets>:<bsize>:<assoc>,<rep>:<wr>:<alloc>:<wr_alloc>,<mshr>:<N>:<merge>,<mq>:<rf>}
-gpgpu_const_cache:l1 64:64:2,L:R:f:N:L,A:2:32,4 # per-shader L1 constant memory cache  (READ-ONLY) config  {<nsets>:<bsize>:<assoc>,<rep>:<wr>:<alloc>:<wr_alloc>,<mshr>:<N>:<merge>,<mq>} 
-gpgpu_cache:il1     4:128:4,L:R:f:N:L,A:2:32,4 # shader L1 instruction cache config  {<nsets>:<bsize>:<assoc>,<rep>:<wr>:<alloc>:<wr_alloc>,<mshr>:<N>:<merge>,<mq>} 
-gpgpu_cache:dl1     32:128:4,L:L:m:N:H,A:32:8,8 # per-shader L1 data cache config  {<nsets>:<bsize>:<assoc>,<rep>:<wr>:<alloc>:<wr_alloc>,<mshr>:<N>:<merge>,<mq> | none}
-gpgpu_cache:dl1PrefL1                 none # per-shader L1 data cache config  {<nsets>:<bsize>:<assoc>,<rep>:<wr>:<alloc>:<wr_alloc>,<mshr>:<N>:<merge>,<mq> | none}
-gpgpu_cache:dl1PreShared                 none # per-shader L1 data cache config  {<nsets>:<bsize>:<assoc>,<rep>:<wr>:<alloc>:<wr_alloc>,<mshr>:<N>:<merge>,<mq> | none}
-gmem_skip_L1D                          0 # global memory access skip L1D cache (implements -Xptxas -dlcm=cg, default=no skip)
-gpgpu_perfect_mem                      0 # enable perfect memory mode (no cache miss)
-n_regfile_gating_group                    4 # group of lanes that should be read/written together)
-gpgpu_clock_gated_reg_file                    0 # enable clock gated reg file for power calculations
-gpgpu_clock_gated_lanes                    0 # enable clock gated lanes for power calculations
-gpgpu_shader_registers                32768 # Number of registers per shader core. Limits number of concurrent CTAs. (default 8192)
-gpgpu_shader_cta                       8 # Maximum number of concurrent CTAs in shader (default 8)
-gpgpu_num_cta_barriers                   16 # Maximum number of named barriers per CTA (default 16)
-gpgpu_n_clusters                      15 # number of processing clusters
-gpgpu_n_cores_per_cluster                    1 # number of simd cores per cluster
-gpgpu_n_cluster_ejection_buffer_size                    8 # number of packets in ejection buffer
-gpgpu_n_ldst_response_buffer_size                    2 # number of response packets in ld/st unit ejection buffer
-gpgpu_shmem_size                   16384 # Size of shared memory per shader core (default 16kB)
-gpgpu_shmem_size                   49152 # Size of shared memory per shader core (default 16kB)
-gpgpu_shmem_size_PrefL1                16384 # Size of shared memory per shader core (default 16kB)
-gpgpu_shmem_size_PrefShared                16384 # Size of shared memory per shader core (default 16kB)
-gpgpu_shmem_num_banks                   32 # Number of banks in the shared memory in each shader core (default 16)
-gpgpu_shmem_limited_broadcast                    0 # Limit shared memory to do one broadcast per cycle (default on)
-gpgpu_shmem_warp_parts                    1 # Number of portions a warp is divided into for shared memory bank conflict check 
-gpgpu_warpdistro_shader                   -1 # Specify which shader core to collect the warp size distribution from
-gpgpu_warp_issue_shader                    0 # Specify which shader core to collect the warp issue distribution from
-gpgpu_local_mem_map                    1 # Mapping from local memory space address to simulated GPU physical address space (default = enabled)
-gpgpu_num_reg_banks                   16 # Number of register banks (default = 8)
-gpgpu_reg_bank_use_warp_id                    0 # Use warp ID in mapping registers to banks (default = off)
-gpgpu_operand_collector_num_units_sp                    6 # number of collector units (default = 4)
-gpgpu_operand_collector_num_units_sfu                    8 # number of collector units (default = 4)
-gpgpu_operand_collector_num_units_mem                    2 # number of collector units (default = 2)
-gpgpu_operand_collector_num_units_gen                    0 # number of collector units (default = 0)
-gpgpu_operand_collector_num_in_ports_sp                    2 # number of collector unit in ports (default = 1)
-gpgpu_operand_collector_num_in_ports_sfu                    1 # number of collector unit in ports (default = 1)
-gpgpu_operand_collector_num_in_ports_mem                    1 # number of collector unit in ports (default = 1)
-gpgpu_operand_collector_num_in_ports_gen                    0 # number of collector unit in ports (default = 0)
-gpgpu_operand_collector_num_out_ports_sp                    2 # number of collector unit in ports (default = 1)
-gpgpu_operand_collector_num_out_ports_sfu                    1 # number of collector unit in ports (default = 1)
-gpgpu_operand_collector_num_out_ports_mem                    1 # number of collector unit in ports (default = 1)
-gpgpu_operand_collector_num_out_ports_gen                    0 # number of collector unit in ports (default = 0)
-gpgpu_coalesce_arch                   13 # Coalescing arch (default = 13, anything else is off for now)
-gpgpu_num_sched_per_core                    2 # Number of warp schedulers per core
-gpgpu_max_insn_issue_per_warp                    1 # Max number of instructions that can be issued per warp in one cycle by scheduler
-gpgpu_simt_core_sim_order                    1 # Select the simulation order of cores in a cluster (0=Fix, 1=Round-Robin)
-gpgpu_pipeline_widths        2,1,1,2,1,1,2 # Pipeline widths ID_OC_SP,ID_OC_SFU,ID_OC_MEM,OC_EX_SP,OC_EX_SFU,OC_EX_MEM,EX_WB
-gpgpu_num_sp_units                     2 # Number of SP units (default=1)
-gpgpu_num_sfu_units                    1 # Number of SF units (default=1)
-gpgpu_num_mem_units                    1 # Number if ldst units (default=1) WARNING: not hooked up to anything
-gpgpu_scheduler                      gto # Scheduler configuration: < lrr | gto | two_level_active > If two_level_active:<num_active_warps>:<inner_prioritization>:<outer_prioritization>For complete list of prioritization values see shader.h enum scheduler_prioritization_typeDefault: gto
-gpgpu_dram_scheduler                    1 # 0 = fifo, 1 = FR-FCFS (defaul)
-gpgpu_dram_partition_queues              8:8:8:8 # i2$:$2d:d2$:$2i
-l2_ideal                               0 # Use a ideal L2 cache that always hit
-gpgpu_cache:dl2     64:128:8,L:B:m:W:L,A:32:4,4:0,32 # unified banked L2 data cache config  {<nsets>:<bsize>:<assoc>,<rep>:<wr>:<alloc>:<wr_alloc>,<mshr>:<N>:<merge>,<mq>}
-gpgpu_cache:dl2_texture_only                    0 # L2 cache used for texture only
-gpgpu_n_mem                            6 # number of memory modules (e.g. memory controllers) in gpu
-gpgpu_n_sub_partition_per_mchannel                    2 # number of memory subpartition in each memory module
-gpgpu_n_mem_per_ctrlr                    2 # number of memory chips per memory controller
-gpgpu_memlatency_stat                   14 # track and display latency statistics 0x2 enables MC, 0x4 enables queue logs
-gpgpu_frfcfs_dram_sched_queue_size                   16 # 0 = unlimited (default); # entries per chip
-gpgpu_dram_return_queue_size                  116 # 0 = unlimited (default); # entries per chip
-gpgpu_dram_buswidth                    4 # default = 4 bytes (8 bytes per cycle at DDR)
-gpgpu_dram_burst_length                    8 # Burst length of each DRAM request (default = 4 data bus cycle)
-dram_data_command_freq_ratio                    4 # Frequency ratio between DRAM data bus and command bus (default = 2 times, i.e. DDR)
-gpgpu_dram_timing_opt nbk=16:CCD=2:RRD=6:RCD=12:RAS=28:RP=12:RC=40: CL=12:WL=4:CDLR=5:WR=12:nbkgrp=4:CCDL=3:RTPL=2 # DRAM timing parameters = {nbk:tCCD:tRRD:tRCD:tRAS:tRP:tRC:CL:WL:tCDLR:tWR:nbkgrp:tCCDL:tRTPL}
-rop_latency                          120 # ROP queue latency (default 85)
-dram_latency                         100 # DRAM latency (default 30)
-gpgpu_mem_addr_mapping dramid@8;00000000.00000000.00000000.00000000.0000RRRR.RRRRRRRR.BBBCCCCB.CCSSSSSS # mapping memory address to dram model {dramid@<start bit>;<memory address map>}
-gpgpu_mem_addr_test                    0 # run sweep test to check address mapping for aliased address
-gpgpu_mem_address_mask                    1 # 0 = old addressing mask, 1 = new addressing mask, 2 = new add. mask + flipped bank sel and chip sel bits
-gpuwattch_xml_file  gpuwattch_gtx480.xml # GPUWattch XML file
-power_simulation_enabled                    1 # Turn on power simulator (1=On, 0=Off)
-power_per_cycle_dump                    0 # Dump detailed power output each cycle
-power_trace_enabled                    0 # produce a file for the power trace (1=On, 0=Off)
-power_trace_zlevel                     6 # Compression level of the power trace output log (0=no comp, 9=highest)
-steady_power_levels_enabled                    0 # produce a file for the steady power levels (1=On, 0=Off)
-steady_state_definition                  8:4 # allowed deviation:number of samples
-gpgpu_max_cycle                        0 # terminates gpu simulation early (0 = no limit)
-gpgpu_max_insn                         0 # terminates gpu simulation early (0 = no limit)
-gpgpu_max_cta                          0 # terminates gpu simulation early (0 = no limit)
-gpgpu_runtime_stat                   500 # display runtime statistics such as dram utilization {<freq>:<flag>}
-liveness_message_freq                    1 # Minimum number of seconds between simulation liveness messages (0 = always print)
-gpgpu_flush_l1_cache                    0 # Flush L1 cache at the end of each kernel call
-gpgpu_flush_l2_cache                    0 # Flush L2 cache at the end of each kernel call
-gpgpu_deadlock_detect                    1 # Stop the simulation at deadlock (1=on (default), 0=off)
-gpgpu_ptx_instruction_classification                    0 # if enabled will classify ptx instruction types per kernel (Max 255 kernels now)
-gpgpu_ptx_sim_mode                     0 # Select between Performance (default) or Functional simulation (1)
-gpgpu_clock_domains 700.0:700.0:700.0:924.0 # Clock Domain Frequencies in MhZ {<Core Clock>:<ICNT Clock>:<L2 Clock>:<DRAM Clock>}
-gpgpu_max_concurrent_kernel                    8 # maximum kernels that can run concurrently on GPU
-gpgpu_cflog_interval                    0 # Interval between each snapshot in control flow logger
-visualizer_enabled                     0 # Turn on visualizer output (1=On, 0=Off)
-visualizer_outputfile                 NULL # Specifies the output log file for visualizer
-visualizer_zlevel                      6 # Compression level of the visualizer output log (0=no comp, 9=highest)
-trace_enabled                          0 # Turn on traces
-trace_components                    none # comma seperated list of traces to enable. Complete list found in trace_streams.tup. Default none
-trace_sampling_core                    0 # The core which is printed using CORE_DPRINTF. Default 0
-trace_sampling_memory_partition                   -1 # The memory partition which is printed using MEMPART_DPRINTF. Default -1 (i.e. all)
-enable_ptx_file_line_stats                    1 # Turn on PTX source line statistic profiling. (1 = On)
-ptx_line_stats_filename gpgpu_inst_stats.txt # Output file for PTX source line statistics.
-save_embedded_ptx                      0 # saves ptx files embedded in binary as <n>.ptx
-keep                                   0 # keep intermediate files created by GPGPU-Sim when interfacing with external programs
-gpgpu_ptx_save_converted_ptxplus                    0 # Saved converted ptxplus to a file
-ptx_opcode_latency_int         4,13,4,5,145 # Opcode latencies for integers <ADD,MAX,MUL,MAD,DIV>Default 1,1,19,25,145
-ptx_opcode_latency_fp          4,13,4,5,39 # Opcode latencies for single precision floating points <ADD,MAX,MUL,MAD,DIV>Default 1,1,1,1,30
-ptx_opcode_latency_dp         8,19,8,8,330 # Opcode latencies for double precision floating points <ADD,MAX,MUL,MAD,DIV>Default 8,8,8,8,335
-ptx_opcode_initiation_int            1,2,2,1,8 # Opcode initiation intervals for integers <ADD,MAX,MUL,MAD,DIV>Default 1,1,4,4,32
-ptx_opcode_initiation_fp            1,2,1,1,4 # Opcode initiation intervals for single precision floating points <ADD,MAX,MUL,MAD,DIV>Default 1,1,1,1,5
-ptx_opcode_initiation_dp         8,16,8,8,130 # Opcode initiation intervals for double precision floating points <ADD,MAX,MUL,MAD,DIV>Default 8,8,8,8,130
DRAM Timing Options:
nbk                                    16 # number of banks
CCD                                     2 # column to column delay
RRD                                     6 # minimal delay between activation of rows in different banks
RCD                                    12 # row to column delay
RAS                                    28 # time needed to activate row
RP                                     12 # time needed to precharge (deactivate) row
RC                                     40 # row cycle time
CDLR                                    5 # switching from write to read (changes tWTR)
WR                                     12 # last data-in to row precharge
CL                                     12 # CAS latency
WL                                      4 # Write latency
nbkgrp                                  4 # number of bank groups
CCDL                                    3 # column to column delay between accesses to different bank groups
RTPL                                    2 # read to precharge delay between accesses to different bank groups
Total number of memory sub partition = 12
addr_dec_mask[CHIP]  = 0000000000000000 	high:64 low:0
addr_dec_mask[BK]    = 000000000000e100 	high:16 low:8
addr_dec_mask[ROW]   = 000000000fff0000 	high:28 low:16
addr_dec_mask[COL]   = 0000000000001eff 	high:13 low:0
addr_dec_mask[BURST] = 000000000000003f 	high:6 low:0
sub_partition_id_mask = 0000000000000100
GPGPU-Sim uArch: clock freqs: 700000000.000000:700000000.000000:700000000.000000:924000000.000000
GPGPU-Sim uArch: clock periods: 0.00000000142857142857:0.00000000142857142857:0.00000000142857142857:0.00000000108225108225
*** Initializing Memory Statistics ***
GPGPU-Sim uArch: interconnect node map (shaderID+MemID to icntID)
GPGPU-Sim uArch: Memory nodes ID start from index: 15
GPGPU-Sim uArch:    0   1   2   3   4
GPGPU-Sim uArch:    5   6   7   8   9
GPGPU-Sim uArch:   10  11  12  13  14
GPGPU-Sim uArch:   15  16  17  18  19
GPGPU-Sim uArch:   20  21  22  23  24
GPGPU-Sim uArch:   25  26
GPGPU-Sim uArch: interconnect node reverse map (icntID to shaderID+MemID)
GPGPU-Sim uArch: Memory nodes start from ID: 15
GPGPU-Sim uArch:    0   1   2   3   4
GPGPU-Sim uArch:    5   6   7   8   9
GPGPU-Sim uArch:   10  11  12  13  14
GPGPU-Sim uArch:   15  16  17  18  19
GPGPU-Sim uArch:   20  21  22  23  24
GPGPU-Sim uArch:   25  26
72e856d54d1f5301b098c144ed7d2ed8  /home/gpgpu-sim/ispass2009-benchmarks/bin/release/MUM
GPGPU-Sim uArch: performance model initialization complete.
GPGPU-Sim PTX: __cudaRegisterFatBinary, fat_cubin_handle = 1, filename=mummergpu.cu
self exe links to: /home/gpgpu-sim/ispass2009-benchmarks/bin/release/MUM
Running md5sum using "md5sum /home/gpgpu-sim/ispass2009-benchmarks/bin/release/MUM "
Running cuobjdump using "$CUDA_INSTALL_PATH/bin/cuobjdump -ptx -elf -sass /home/gpgpu-sim/ispass2009-benchmarks/bin/release/MUM > _cuobjdump_complete_output_f53dJR"
Parsing file _cuobjdump_complete_output_f53dJR
######### cuobjdump parser ########
## Adding new section ELF
Adding arch: sm_30
Adding identifier: mummergpu.cu
## Adding new section PTX
Adding ptx filename: _cuobjdump_1.ptx
Adding arch: sm_30
Adding identifier: mummergpu.cu
## Adding new section ELF
Adding arch: sm_20
Adding identifier: mummergpu.cu
## Adding new section PTX
Adding ptx filename: _cuobjdump_2.ptx
Adding arch: sm_20
Adding identifier: mummergpu.cu
## Adding new section ELF
Adding arch: sm_10
Adding identifier: mummergpu.cu
## Adding new section PTX
Adding ptx filename: _cuobjdump_3.ptx
Adding arch: sm_10
Adding identifier: mummergpu.cu
Done parsing!!!
GPGPU-Sim PTX: __cudaRegisterFunction _Z17mummergpuRCKernelP10MatchCoordPcPKiS3_ii : hostFun 0x0x40af20, fat_cubin_handle = 1
GPGPU-Sim PTX: allocating global region for "nodetex" from 0x100 to 0x104 (global memory space)
GPGPU-Sim PTX: allocating global region for "childrentex" from 0x104 to 0x108 (global memory space)
GPGPU-Sim PTX: allocating global region for "reftex" from 0x108 to 0x10c (global memory space)
GPGPU-Sim PTX: allocating stack frame region for .param "_Z10set_resultRK14TextureAddressP10MatchCoordiiii_param_0" from 0x0 to 0x8
GPGPU-Sim PTX: allocating stack frame region for .param "_Z10set_resultRK14TextureAddressP10MatchCoordiiii_param_1" from 0x8 to 0x10
GPGPU-Sim PTX: allocating stack frame region for .param "_Z10set_resultRK14TextureAddressP10MatchCoordiiii_param_2" from 0x10 to 0x14
GPGPU-Sim PTX: allocating stack frame region for .param "_Z10set_resultRK14TextureAddressP10MatchCoordiiii_param_3" from 0x14 to 0x18
GPGPU-Sim PTX: allocating stack frame region for .param "_Z10set_resultRK14TextureAddressP10MatchCoordiiii_param_4" from 0x18 to 0x1c
GPGPU-Sim PTX: allocating stack frame region for .param "_Z10set_resultRK14TextureAddressP10MatchCoordiiii_param_5" from 0x1c to 0x20
GPGPU-Sim PTX: instruction assembly for function '_Z10set_resultRK14TextureAddressP10MatchCoordiiii'...   done.
GPGPU-Sim PTX: finding reconvergence points for '_Z10set_resultRK14TextureAddressP10MatchCoordiiii'...
GPGPU-Sim PTX: Finding dominators for '_Z10set_resultRK14TextureAddressP10MatchCoordiiii'...
GPGPU-Sim PTX: Finding immediate dominators for '_Z10set_resultRK14TextureAddressP10MatchCoordiiii'...
GPGPU-Sim PTX: Finding postdominators for '_Z10set_resultRK14TextureAddressP10MatchCoordiiii'...
GPGPU-Sim PTX: Finding immediate postdominators for '_Z10set_resultRK14TextureAddressP10MatchCoordiiii'...
GPGPU-Sim PTX: pre-decoding instructions for '_Z10set_resultRK14TextureAddressP10MatchCoordiiii'...
GPGPU-Sim PTX: reconvergence points for _Z10set_resultRK14TextureAddressP10MatchCoordiiii...
GPGPU-Sim PTX:  1 (potential) branch divergence @  PC=0x018 (_1.ptx:37) @%p1 bra BB0_2;
GPGPU-Sim PTX:    immediate post dominator      @ 
GPGPU-Sim PTX: ... end of reconvergence points for _Z10set_resultRK14TextureAddressP10MatchCoordiiii
GPGPU-Sim PTX: ... done pre-decoding instructions for '_Z10set_resultRK14TextureAddressP10MatchCoordiiii'.
GPGPU-Sim PTX: allocating stack frame region for .param "func_retval0" from 0x0 to 0x4
GPGPU-Sim PTX: allocating stack frame region for .param "_Z6getRefi_param_0" from 0x4 to 0x8
GPGPU-Sim PTX: instruction assembly for function '_Z6getRefi'...   done.
GPGPU-Sim PTX: finding reconvergence points for '_Z6getRefi'...
GPGPU-Sim PTX: Finding dominators for '_Z6getRefi'...
GPGPU-Sim PTX: Finding immediate dominators for '_Z6getRefi'...
GPGPU-Sim PTX: Finding postdominators for '_Z6getRefi'...
GPGPU-Sim PTX: Finding immediate postdominators for '_Z6getRefi'...
GPGPU-Sim PTX: pre-decoding instructions for '_Z6getRefi'...
GPGPU-Sim PTX: reconvergence points for _Z6getRefi...
GPGPU-Sim PTX: ... end of reconvergence points for _Z6getRefi
GPGPU-Sim PTX: ... done pre-decoding instructions for '_Z6getRefi'.
GPGPU-Sim PTX: allocating stack frame region for .param "func_retval0" from 0x0 to 0x4
GPGPU-Sim PTX: allocating stack frame region for .param "_Z2rcc_param_0" from 0x4 to 0x8
GPGPU-Sim PTX: Warning %temp1 was declared previous at _1.ptx:109 skipping new declaration
GPGPU-Sim PTX: Warning %temp2 was declared previous at _1.ptx:110 skipping new declaration
GPGPU-Sim PTX: Warning %temp1 was declared previous at _1.ptx:109 skipping new declaration
GPGPU-Sim PTX: Warning %temp2 was declared previous at _1.ptx:110 skipping new declaration
GPGPU-Sim PTX: Warning %temp1 was declared previous at _1.ptx:109 skipping new declaration
GPGPU-Sim PTX: Warning %temp2 was declared previous at _1.ptx:110 skipping new declaration
GPGPU-Sim PTX: Warning %temp1 was declared previous at _1.ptx:109 skipping new declaration
GPGPU-Sim PTX: Warning %temp2 was declared previous at _1.ptx:110 skipping new declaration
GPGPU-Sim PTX: Warning %temp1 was declared previous at _1.ptx:109 skipping new declaration
GPGPU-Sim PTX: Warning %temp2 was declared previous at _1.ptx:110 skipping new declaration
GPGPU-Sim PTX: instruction assembly for function '_Z2rcc'...   done.
GPGPU-Sim PTX: finding reconvergence points for '_Z2rcc'...
GPGPU-Sim PTX: Finding dominators for '_Z2rcc'...
GPGPU-Sim PTX: Finding immediate dominators for '_Z2rcc'...
GPGPU-Sim PTX: Finding postdominators for '_Z2rcc'...
GPGPU-Sim PTX: Finding immediate postdominators for '_Z2rcc'...
GPGPU-Sim PTX: pre-decoding instructions for '_Z2rcc'...
GPGPU-Sim PTX: reconvergence points for _Z2rcc...
GPGPU-Sim PTX:  1 (potential) branch divergence @  PC=0x140 (_1.ptx:116) @%p1 bra BB2_4;
GPGPU-Sim PTX:    immediate post dominator      @ 
GPGPU-Sim PTX:  2 (potential) branch divergence @  PC=0x170 (_1.ptx:127) @%p5 bra BB2_10;
GPGPU-Sim PTX:    immediate post dominator      @ 
GPGPU-Sim PTX:  3 (potential) branch divergence @  PC=0x1a0 (_1.ptx:138) @%p6 bra BB2_3;
GPGPU-Sim PTX:    immediate post dominator      @ 
GPGPU-Sim PTX:  4 (potential) branch divergence @  PC=0x1a8 (_1.ptx:139) bra.uni BB2_11;
GPGPU-Sim PTX:    immediate post dominator      @  PC=0x2b8 (_1.ptx:205) ld.param.u8 %rc2, [_Z2rcc_param_0];
GPGPU-Sim PTX:  5 (potential) branch divergence @  PC=0x1f0 (_1.ptx:157) @%p2 bra BB2_9;
GPGPU-Sim PTX:    immediate post dominator      @ 
GPGPU-Sim PTX:  6 (potential) branch divergence @  PC=0x220 (_1.ptx:168) @%p3 bra BB2_8;
GPGPU-Sim PTX:    immediate post dominator      @ 
GPGPU-Sim PTX:  7 (potential) branch divergence @  PC=0x250 (_1.ptx:179) @%p4 bra BB2_11;
GPGPU-Sim PTX:    immediate post dominator      @ 
GPGPU-Sim PTX: ... end of reconvergence points for _Z2rcc
GPGPU-Sim PTX: ... done pre-decoding instructions for '_Z2rcc'.
GPGPU-Sim PTX: Warning %temp1 was declared previous at _1.ptx:326 skipping new declaration
GPGPU-Sim PTX: Warning %temp2 was declared previous at _1.ptx:327 skipping new declaration
GPGPU-Sim PTX: Warning %temp1 was declared previous at _1.ptx:326 skipping new declaration
GPGPU-Sim PTX: Warning %temp2 was declared previous at _1.ptx:327 skipping new declaration
GPGPU-Sim PTX: Warning %temp1 was declared previous at _1.ptx:326 skipping new declaration
GPGPU-Sim PTX: Warning %temp2 was declared previous at _1.ptx:327 skipping new declaration
GPGPU-Sim PTX: Warning %temp1 was declared previous at _1.ptx:326 skipping new declaration
GPGPU-Sim PTX: Warning %temp2 was declared previous at _1.ptx:327 skipping new declaration
GPGPU-Sim PTX: Warning %temp1 was declared previous at _1.ptx:326 skipping new declaration
GPGPU-Sim PTX: Warning %temp2 was declared previous at _1.ptx:327 skipping new declaration
GPGPU-Sim PTX: instruction assembly for function '_Z15mummergpuKernelP10MatchCoordPcPKiS3_ii'...   done.
GPGPU-Sim PTX: finding reconvergence points for '_Z15mummergpuKernelP10MatchCoordPcPKiS3_ii'...
GPGPU-Sim PTX: Finding dominators for '_Z15mummergpuKernelP10MatchCoordPcPKiS3_ii'...
GPGPU-Sim PTX: Finding immediate dominators for '_Z15mummergpuKernelP10MatchCoordPcPKiS3_ii'...
GPGPU-Sim PTX: Finding postdominators for '_Z15mummergpuKernelP10MatchCoordPcPKiS3_ii'...
GPGPU-Sim PTX: Finding immediate postdominators for '_Z15mummergpuKernelP10MatchCoordPcPKiS3_ii'...
GPGPU-Sim PTX: pre-decoding instructions for '_Z15mummergpuKernelP10MatchCoordPcPKiS3_ii'...
GPGPU-Sim PTX: reconvergence points for _Z15mummergpuKernelP10MatchCoordPcPKiS3_ii...
GPGPU-Sim PTX:  1 (potential) branch divergence @  PC=0x350 (_1.ptx:248) @%p1 bra BB3_33;
GPGPU-Sim PTX:    immediate post dominator      @  PC=0xa10 (_1.ptx:610) ret;
GPGPU-Sim PTX:  2 (potential) branch divergence @  PC=0x3d0 (_1.ptx:275) @%p2 bra BB3_33;
GPGPU-Sim PTX:    immediate post dominator      @  PC=0xa10 (_1.ptx:610) ret;
GPGPU-Sim PTX:  3 (potential) branch divergence @  PC=0x468 (_1.ptx:298) @%p5 bra BB3_4;
GPGPU-Sim PTX:    immediate post dominator      @  PC=0x498 (_1.ptx:308) mov.u16 %rs55, %rs57;
GPGPU-Sim PTX:  4 (potential) branch divergence @  PC=0x470 (_1.ptx:299) bra.uni BB3_5;
GPGPU-Sim PTX:    immediate post dominator      @  PC=0x498 (_1.ptx:308) mov.u16 %rs55, %rs57;
GPGPU-Sim PTX:  5 (potential) branch divergence @  PC=0x528 (_1.ptx:334) @%p6 bra BB3_28;
GPGPU-Sim PTX:    immediate post dominator      @  PC=0x980 (_1.ptx:582) mov.u16 %rs18, %rs53;
GPGPU-Sim PTX:  6 (potential) branch divergence @  PC=0x590 (_1.ptx:357) @%p7 bra BB3_15;
GPGPU-Sim PTX:    immediate post dominator      @  PC=0x658 (_1.ptx:412) setp.eq.s32 %p11, %r140, 0;
GPGPU-Sim PTX:  7 (potential) branch divergence @  PC=0x5b8 (_1.ptx:368) @%p8 bra BB3_14;
GPGPU-Sim PTX:    immediate post dominator      @  PC=0x658 (_1.ptx:412) setp.eq.s32 %p11, %r140, 0;
GPGPU-Sim PTX:  8 (potential) branch divergence @  PC=0x5e0 (_1.ptx:379) @%p9 bra BB3_13;
GPGPU-Sim PTX:    immediate post dominator      @  PC=0x658 (_1.ptx:412) setp.eq.s32 %p11, %r140, 0;
GPGPU-Sim PTX:  9 (potential) branch divergence @  PC=0x608 (_1.ptx:390) @%p10 bra BB3_12;
GPGPU-Sim PTX:    immediate post dominator      @  PC=0x658 (_1.ptx:412) setp.eq.s32 %p11, %r140, 0;
GPGPU-Sim PTX: 10 (potential) branch divergence @  PC=0x618 (_1.ptx:393) bra.uni BB3_16;
GPGPU-Sim PTX:    immediate post dominator      @  PC=0x658 (_1.ptx:412) setp.eq.s32 %p11, %r140, 0;
GPGPU-Sim PTX: 11 (potential) branch divergence @  PC=0x628 (_1.ptx:397) bra.uni BB3_16;
GPGPU-Sim PTX:    immediate post dominator      @  PC=0x658 (_1.ptx:412) setp.eq.s32 %p11, %r140, 0;
GPGPU-Sim PTX: 12 (potential) branch divergence @  PC=0x638 (_1.ptx:401) bra.uni BB3_16;
GPGPU-Sim PTX:    immediate post dominator      @  PC=0x658 (_1.ptx:412) setp.eq.s32 %p11, %r140, 0;
GPGPU-Sim PTX: 13 (potential) branch divergence @  PC=0x648 (_1.ptx:405) bra.uni BB3_16;
GPGPU-Sim PTX:    immediate post dominator      @  PC=0x658 (_1.ptx:412) setp.eq.s32 %p11, %r140, 0;
GPGPU-Sim PTX: 14 (potential) branch divergence @  PC=0x660 (_1.ptx:413) @%p11 bra BB3_25;
GPGPU-Sim PTX:    immediate post dominator      @  PC=0x980 (_1.ptx:582) mov.u16 %rs18, %rs53;
GPGPU-Sim PTX: 15 (potential) branch divergence @  PC=0x6b0 (_1.ptx:432) @%p12 bra BB3_19;
GPGPU-Sim PTX:    immediate post dominator      @  PC=0x728 (_1.ptx:458) mov.u32 %r135, %r136;
GPGPU-Sim PTX: 16 (potential) branch divergence @  PC=0x708 (_1.ptx:449) bra.uni BB3_20;
GPGPU-Sim PTX:    immediate post dominator      @  PC=0x728 (_1.ptx:458) mov.u32 %r135, %r136;
GPGPU-Sim PTX: 17 (potential) branch divergence @  PC=0x790 (_1.ptx:478) @!%p16 bra BB3_6;
GPGPU-Sim PTX:    immediate post dominator      @  PC=0x980 (_1.ptx:582) mov.u16 %rs18, %rs53;
GPGPU-Sim PTX: 18 (potential) branch divergence @  PC=0x800 (_1.ptx:499) @%p17 bra BB3_24;
GPGPU-Sim PTX:    immediate post dominator      @  PC=0x980 (_1.ptx:582) mov.u16 %rs18, %rs53;
GPGPU-Sim PTX: 19 (potential) branch divergence @  PC=0x828 (_1.ptx:505) bra.uni BB3_29;
GPGPU-Sim PTX:    immediate post dominator      @  PC=0x8f0 (_1.ptx:550) mov.u16 %rs53, %rs52;
GPGPU-Sim PTX: 20 (potential) branch divergence @  PC=0x840 (_1.ptx:512) bra.uni BB3_21;
GPGPU-Sim PTX:    immediate post dominator      @  PC=0x738 (_1.ptx:462) cvt.s64.s32 %rl25, %r143;
GPGPU-Sim PTX: 21 (potential) branch divergence @  PC=0x858 (_1.ptx:518) @%p18 bra BB3_27;
GPGPU-Sim PTX:    immediate post dominator      @  PC=0x8b8 (_1.ptx:539) add.s32 %r143, %r143, -1;
GPGPU-Sim PTX: 22 (potential) branch divergence @  PC=0x8d8 (_1.ptx:543) bra.uni BB3_32;
GPGPU-Sim PTX:    immediate post dominator      @  PC=0x980 (_1.ptx:582) mov.u16 %rs18, %rs53;
GPGPU-Sim PTX: 23 (potential) branch divergence @  PC=0x918 (_1.ptx:557) @%p19 bra BB3_31;
GPGPU-Sim PTX:    immediate post dominator      @  PC=0x970 (_1.ptx:578) add.s32 %r119, %r143, -1;
GPGPU-Sim PTX: 24 (potential) branch divergence @  PC=0xa08 (_1.ptx:606) @%p20 bra BB3_3;
GPGPU-Sim PTX:    immediate post dominator      @  PC=0xa10 (_1.ptx:610) ret;
GPGPU-Sim PTX: ... end of reconvergence points for _Z15mummergpuKernelP10MatchCoordPcPKiS3_ii
GPGPU-Sim PTX: ... done pre-decoding instructions for '_Z15mummergpuKernelP10MatchCoordPcPKiS3_ii'.
GPGPU-Sim PTX: Warning %temp1 was declared previous at _1.ptx:717 skipping new declaration
GPGPU-Sim PTX: Warning %temp2 was declared previous at _1.ptx:718 skipping new declaration
GPGPU-Sim PTX: Warning %temp1 was declared previous at _1.ptx:717 skipping new declaration
GPGPU-Sim PTX: Warning %temp2 was declared previous at _1.ptx:718 skipping new declaration
GPGPU-Sim PTX: Warning %temp1 was declared previous at _1.ptx:717 skipping new declaration
GPGPU-Sim PTX: Warning %temp2 was declared previous at _1.ptx:718 skipping new declaration
GPGPU-Sim PTX: Warning %temp1 was declared previous at _1.ptx:717 skipping new declaration
GPGPU-Sim PTX: Warning %temp2 was declared previous at _1.ptx:718 skipping new declaration
GPGPU-Sim PTX: Warning %temp1 was declared previous at _1.ptx:717 skipping new declaration
GPGPU-Sim PTX: Warning %temp2 was declared previous at _1.ptx:718 skipping new declaration
GPGPU-Sim PTX: Warning %temp1 was declared previous at _1.ptx:717 skipping new declaration
GPGPU-Sim PTX: Warning %temp2 was declared previous at _1.ptx:718 skipping new declaration
GPGPU-Sim PTX: Warning %temp1 was declared previous at _1.ptx:717 skipping new declaration
GPGPU-Sim PTX: Warning %temp2 was declared previous at _1.ptx:718 skipping new declaration
GPGPU-Sim PTX: Warning %temp1 was declared previous at _1.ptx:717 skipping new declaration
GPGPU-Sim PTX: Warning %temp2 was declared previous at _1.ptx:718 skipping new declaration
GPGPU-Sim PTX: Warning %temp1 was declared previous at _1.ptx:717 skipping new declaration
GPGPU-Sim PTX: Warning %temp2 was declared previous at _1.ptx:718 skipping new declaration
GPGPU-Sim PTX: Warning %temp1 was declared previous at _1.ptx:717 skipping new declaration
GPGPU-Sim PTX: Warning %temp2 was declared previous at _1.ptx:718 skipping new declaration
GPGPU-Sim PTX: Warning %temp1 was declared previous at _1.ptx:717 skipping new declaration
GPGPU-Sim PTX: Warning %temp2 was declared previous at _1.ptx:718 skipping new declaration
GPGPU-Sim PTX: Warning %temp1 was declared previous at _1.ptx:717 skipping new declaration
GPGPU-Sim PTX: Warning %temp2 was declared previous at _1.ptx:718 skipping new declaration
GPGPU-Sim PTX: Warning %temp1 was declared previous at _1.ptx:717 skipping new declaration
GPGPU-Sim PTX: Warning %temp2 was declared previous at _1.ptx:718 skipping new declaration
GPGPU-Sim PTX: Warning %temp1 was declared previous at _1.ptx:717 skipping new declaration
GPGPU-Sim PTX: Warning %temp2 was declared previous at _1.ptx:718 skipping new declaration
GPGPU-Sim PTX: Warning %temp1 was declared previous at _1.ptx:717 skipping new declaration
GPGPU-Sim PTX: Warning %temp2 was declared previous at _1.ptx:718 skipping new declaration
GPGPU-Sim PTX: Warning %temp1 was declared previous at _1.ptx:717 skipping new declaration
GPGPU-Sim PTX: Warning %temp2 was declared previous at _1.ptx:718 skipping new declaration
GPGPU-Sim PTX: Warning %temp1 was declared previous at _1.ptx:717 skipping new declaration
GPGPU-Sim PTX: Warning %temp2 was declared previous at _1.ptx:718 skipping new declaration
GPGPU-Sim PTX: Warning %temp1 was declared previous at _1.ptx:717 skipping new declaration
GPGPU-Sim PTX: Warning %temp2 was declared previous at _1.ptx:718 skipping new declaration
GPGPU-Sim PTX: Warning %temp1 was declared previous at _1.ptx:717 skipping new declaration
GPGPU-Sim PTX: Warning %temp2 was declared previous at _1.ptx:718 skipping new declaration
GPGPU-Sim PTX: Warning %temp1 was declared previous at _1.ptx:717 skipping new declaration
GPGPU-Sim PTX: Warning %temp2 was declared previous at _1.ptx:718 skipping new declaration
GPGPU-Sim PTX: instruction assembly for function '_Z17mummergpuRCKernelP10MatchCoordPcPKiS3_ii'...   done.
GPGPU-Sim PTX: finding reconvergence points for '_Z17mummergpuRCKernelP10MatchCoordPcPKiS3_ii'...
GPGPU-Sim PTX: Finding dominators for '_Z17mummergpuRCKernelP10MatchCoordPcPKiS3_ii'...
GPGPU-Sim PTX: Finding immediate dominators for '_Z17mummergpuRCKernelP10MatchCoordPcPKiS3_ii'...
GPGPU-Sim PTX: Finding postdominators for '_Z17mummergpuRCKernelP10MatchCoordPcPKiS3_ii'...
GPGPU-Sim PTX: Finding immediate postdominators for '_Z17mummergpuRCKernelP10MatchCoordPcPKiS3_ii'...
GPGPU-Sim PTX: pre-decoding instructions for '_Z17mummergpuRCKernelP10MatchCoordPcPKiS3_ii'...
GPGPU-Sim PTX: reconvergence points for _Z17mummergpuRCKernelP10MatchCoordPcPKiS3_ii...
GPGPU-Sim PTX:  1 (potential) branch divergence @  PC=0xa80 (_1.ptx:647) @%p1 bra BB4_57;
GPGPU-Sim PTX:    immediate post dominator      @  PC=0x1540 (_1.ptx:1249) ret;
GPGPU-Sim PTX:  2 (potential) branch divergence @  PC=0xaf8 (_1.ptx:671) @%p2 bra BB4_57;
GPGPU-Sim PTX:    immediate post dominator      @  PC=0x1540 (_1.ptx:1249) ret;
GPGPU-Sim PTX:  3 (potential) branch divergence @  PC=0xb90 (_1.ptx:694) @%p5 bra BB4_4;
GPGPU-Sim PTX:    immediate post dominator      @  PC=0xbc0 (_1.ptx:704) mov.u16 %rs75, %rs77;
GPGPU-Sim PTX:  4 (potential) branch divergence @  PC=0xb98 (_1.ptx:695) bra.uni BB4_5;
GPGPU-Sim PTX:    immediate post dominator      @  PC=0xbc0 (_1.ptx:704) mov.u16 %rs75, %rs77;
GPGPU-Sim PTX:  5 (potential) branch divergence @  PC=0xc30 (_1.ptx:725) @%p6 bra BB4_15;
GPGPU-Sim PTX:    immediate post dominator      @  PC=0xd58 (_1.ptx:799) mov.u16 %rs52, %rs74;
GPGPU-Sim PTX:  6 (potential) branch divergence @  PC=0xc58 (_1.ptx:736) @%p7 bra BB4_14;
GPGPU-Sim PTX:    immediate post dominator      @  PC=0xd58 (_1.ptx:799) mov.u16 %rs52, %rs74;
GPGPU-Sim PTX:  7 (potential) branch divergence @  PC=0xc80 (_1.ptx:747) @%p8 bra BB4_13;
GPGPU-Sim PTX:    immediate post dominator      @  PC=0xd58 (_1.ptx:799) mov.u16 %rs52, %rs74;
GPGPU-Sim PTX:  8 (potential) branch divergence @  PC=0xca8 (_1.ptx:758) @%p9 bra BB4_12;
GPGPU-Sim PTX:    immediate post dominator      @  PC=0xd58 (_1.ptx:799) mov.u16 %rs52, %rs74;
GPGPU-Sim PTX:  9 (potential) branch divergence @  PC=0xcd0 (_1.ptx:769) @%p10 bra BB4_11;
GPGPU-Sim PTX:    immediate post dominator      @  PC=0xd58 (_1.ptx:799) mov.u16 %rs52, %rs74;
GPGPU-Sim PTX: 10 (potential) branch divergence @  PC=0xce0 (_1.ptx:772) bra.uni BB4_16;
GPGPU-Sim PTX:    immediate post dominator      @  PC=0xd58 (_1.ptx:799) mov.u16 %rs52, %rs74;
GPGPU-Sim PTX: 11 (potential) branch divergence @  PC=0xcf8 (_1.ptx:777) bra.uni BB4_16;
GPGPU-Sim PTX:    immediate post dominator      @  PC=0xd58 (_1.ptx:799) mov.u16 %rs52, %rs74;
GPGPU-Sim PTX: 12 (potential) branch divergence @  PC=0xd10 (_1.ptx:782) bra.uni BB4_16;
GPGPU-Sim PTX:    immediate post dominator      @  PC=0xd58 (_1.ptx:799) mov.u16 %rs52, %rs74;
GPGPU-Sim PTX: 13 (potential) branch divergence @  PC=0xd28 (_1.ptx:787) bra.uni BB4_16;
GPGPU-Sim PTX:    immediate post dominator      @  PC=0xd58 (_1.ptx:799) mov.u16 %rs52, %rs74;
GPGPU-Sim PTX: 14 (potential) branch divergence @  PC=0xd40 (_1.ptx:792) bra.uni BB4_16;
GPGPU-Sim PTX:    immediate post dominator      @  PC=0xd58 (_1.ptx:799) mov.u16 %rs52, %rs74;
GPGPU-Sim PTX: 15 (potential) branch divergence @  PC=0xdb0 (_1.ptx:815) @%p11 bra BB4_52;
GPGPU-Sim PTX:    immediate post dominator      @  PC=0x14b0 (_1.ptx:1221) mov.u16 %rs18, %rs73;
GPGPU-Sim PTX: 16 (potential) branch divergence @  PC=0xe18 (_1.ptx:838) @%p12 bra BB4_25;
GPGPU-Sim PTX:    immediate post dominator      @  PC=0xee0 (_1.ptx:893) setp.eq.s32 %p16, %r156, 0;
GPGPU-Sim PTX: 17 (potential) branch divergence @  PC=0xe40 (_1.ptx:849) @%p13 bra BB4_24;
GPGPU-Sim PTX:    immediate post dominator      @  PC=0xee0 (_1.ptx:893) setp.eq.s32 %p16, %r156, 0;
GPGPU-Sim PTX: 18 (potential) branch divergence @  PC=0xe68 (_1.ptx:860) @%p14 bra BB4_23;
GPGPU-Sim PTX:    immediate post dominator      @  PC=0xee0 (_1.ptx:893) setp.eq.s32 %p16, %r156, 0;
GPGPU-Sim PTX: 19 (potential) branch divergence @  PC=0xe90 (_1.ptx:871) @%p15 bra BB4_22;
GPGPU-Sim PTX:    immediate post dominator      @  PC=0xee0 (_1.ptx:893) setp.eq.s32 %p16, %r156, 0;
GPGPU-Sim PTX: 20 (potential) branch divergence @  PC=0xea0 (_1.ptx:874) bra.uni BB4_26;
GPGPU-Sim PTX:    immediate post dominator      @  PC=0xee0 (_1.ptx:893) setp.eq.s32 %p16, %r156, 0;
GPGPU-Sim PTX: 21 (potential) branch divergence @  PC=0xeb0 (_1.ptx:878) bra.uni BB4_26;
GPGPU-Sim PTX:    immediate post dominator      @  PC=0xee0 (_1.ptx:893) setp.eq.s32 %p16, %r156, 0;
GPGPU-Sim PTX: 22 (potential) branch divergence @  PC=0xec0 (_1.ptx:882) bra.uni BB4_26;
GPGPU-Sim PTX:    immediate post dominator      @  PC=0xee0 (_1.ptx:893) setp.eq.s32 %p16, %r156, 0;
GPGPU-Sim PTX: 23 (potential) branch divergence @  PC=0xed0 (_1.ptx:886) bra.uni BB4_26;
GPGPU-Sim PTX:    immediate post dominator      @  PC=0xee0 (_1.ptx:893) setp.eq.s32 %p16, %r156, 0;
GPGPU-Sim PTX: 24 (potential) branch divergence @  PC=0xee8 (_1.ptx:894) @%p16 bra BB4_49;
GPGPU-Sim PTX:    immediate post dominator      @  PC=0x14b0 (_1.ptx:1221) mov.u16 %rs18, %rs73;
GPGPU-Sim PTX: 25 (potential) branch divergence @  PC=0xf38 (_1.ptx:913) @%p17 bra BB4_29;
GPGPU-Sim PTX:    immediate post dominator      @  PC=0xfb0 (_1.ptx:939) mov.u32 %r151, %r152;
GPGPU-Sim PTX: 26 (potential) branch divergence @  PC=0xf90 (_1.ptx:930) bra.uni BB4_30;
GPGPU-Sim PTX:    immediate post dominator      @  PC=0xfb0 (_1.ptx:939) mov.u32 %r151, %r152;
GPGPU-Sim PTX: 27 (potential) branch divergence @  PC=0x1018 (_1.ptx:959) @%p19 bra BB4_39;
GPGPU-Sim PTX:    immediate post dominator      @  PC=0x1110 (_1.ptx:1025) mov.u16 %rc21, %rc23;
GPGPU-Sim PTX: 28 (potential) branch divergence @  PC=0x1040 (_1.ptx:970) @%p20 bra BB4_38;
GPGPU-Sim PTX:    immediate post dominator      @  PC=0x1110 (_1.ptx:1025) mov.u16 %rc21, %rc23;
GPGPU-Sim PTX: 29 (potential) branch divergence @  PC=0x1068 (_1.ptx:981) @%p21 bra BB4_37;
GPGPU-Sim PTX:    immediate post dominator      @  PC=0x1110 (_1.ptx:1025) mov.u16 %rc21, %rc23;
GPGPU-Sim PTX: 30 (potential) branch divergence @  PC=0x1090 (_1.ptx:992) @%p22 bra BB4_36;
GPGPU-Sim PTX:    immediate post dominator      @  PC=0x1110 (_1.ptx:1025) mov.u16 %rc21, %rc23;
GPGPU-Sim PTX: 31 (potential) branch divergence @  PC=0x10b8 (_1.ptx:1002) @%p23 bra BB4_35;
GPGPU-Sim PTX:    immediate post dominator      @  PC=0x1110 (_1.ptx:1025) mov.u16 %rc21, %rc23;
GPGPU-Sim PTX: 32 (potential) branch divergence @  PC=0x10c0 (_1.ptx:1003) bra.uni BB4_40;
GPGPU-Sim PTX:    immediate post dominator      @  PC=0x1110 (_1.ptx:1025) mov.u16 %rc21, %rc23;
GPGPU-Sim PTX: 33 (potential) branch divergence @  PC=0x10d0 (_1.ptx:1007) bra.uni BB4_40;
GPGPU-Sim PTX:    immediate post dominator      @  PC=0x1110 (_1.ptx:1025) mov.u16 %rc21, %rc23;
GPGPU-Sim PTX: 34 (potential) branch divergence @  PC=0x10e0 (_1.ptx:1011) bra.uni BB4_40;
GPGPU-Sim PTX:    immediate post dominator      @  PC=0x1110 (_1.ptx:1025) mov.u16 %rc21, %rc23;
GPGPU-Sim PTX: 35 (potential) branch divergence @  PC=0x10f0 (_1.ptx:1015) bra.uni BB4_40;
GPGPU-Sim PTX:    immediate post dominator      @  PC=0x1110 (_1.ptx:1025) mov.u16 %rc21, %rc23;
GPGPU-Sim PTX: 36 (potential) branch divergence @  PC=0x1100 (_1.ptx:1019) bra.uni BB4_40;
GPGPU-Sim PTX:    immediate post dominator      @  PC=0x1110 (_1.ptx:1025) mov.u16 %rc21, %rc23;
GPGPU-Sim PTX: 37 (potential) branch divergence @  PC=0x1160 (_1.ptx:1040) @!%p26 bra BB4_16;
GPGPU-Sim PTX:    immediate post dominator      @  PC=0x14b0 (_1.ptx:1221) mov.u16 %rs18, %rs73;
GPGPU-Sim PTX: 38 (potential) branch divergence @  PC=0x11d0 (_1.ptx:1061) @%p27 bra BB4_43;
GPGPU-Sim PTX:    immediate post dominator      @  PC=0x14b0 (_1.ptx:1221) mov.u16 %rs18, %rs73;
GPGPU-Sim PTX: 39 (potential) branch divergence @  PC=0x11f8 (_1.ptx:1067) bra.uni BB4_53;
GPGPU-Sim PTX:    immediate post dominator      @  PC=0x1418 (_1.ptx:1187) mov.u16 %rs73, %rs72;
GPGPU-Sim PTX: 40 (potential) branch divergence @  PC=0x1278 (_1.ptx:1094) @%p28 bra BB4_40;
GPGPU-Sim PTX:    immediate post dominator      @  PC=0x1110 (_1.ptx:1025) mov.u16 %rc21, %rc23;
GPGPU-Sim PTX: 41 (potential) branch divergence @  PC=0x12b0 (_1.ptx:1107) @%p29 bra BB4_40;
GPGPU-Sim PTX:    immediate post dominator      @  PC=0x1110 (_1.ptx:1025) mov.u16 %rc21, %rc23;
GPGPU-Sim PTX: 42 (potential) branch divergence @  PC=0x12e8 (_1.ptx:1120) @%p30 bra BB4_40;
GPGPU-Sim PTX:    immediate post dominator      @  PC=0x1110 (_1.ptx:1025) mov.u16 %rc21, %rc23;
GPGPU-Sim PTX: 43 (potential) branch divergence @  PC=0x1320 (_1.ptx:1133) @%p31 bra BB4_40;
GPGPU-Sim PTX:    immediate post dominator      @  PC=0x1110 (_1.ptx:1025) mov.u16 %rc21, %rc23;
GPGPU-Sim PTX: 44 (potential) branch divergence @  PC=0x1350 (_1.ptx:1145) @%p32 bra BB4_40;
GPGPU-Sim PTX:    immediate post dominator      @  PC=0x1110 (_1.ptx:1025) mov.u16 %rc21, %rc23;
GPGPU-Sim PTX: 45 (potential) branch divergence @  PC=0x1368 (_1.ptx:1149) bra.uni BB4_40;
GPGPU-Sim PTX:    immediate post dominator      @  PC=0x1110 (_1.ptx:1025) mov.u16 %rc21, %rc23;
GPGPU-Sim PTX: 46 (potential) branch divergence @  PC=0x1380 (_1.ptx:1155) @%p33 bra BB4_51;
GPGPU-Sim PTX:    immediate post dominator      @  PC=0x13e0 (_1.ptx:1176) add.s32 %r159, %r159, -1;
GPGPU-Sim PTX: 47 (potential) branch divergence @  PC=0x1400 (_1.ptx:1180) bra.uni BB4_56;
GPGPU-Sim PTX:    immediate post dominator      @  PC=0x14b0 (_1.ptx:1221) mov.u16 %rs18, %rs73;
GPGPU-Sim PTX: 48 (potential) branch divergence @  PC=0x1440 (_1.ptx:1194) @%p34 bra BB4_55;
GPGPU-Sim PTX:    immediate post dominator      @  PC=0x14a0 (_1.ptx:1217) add.s32 %r129, %r159, -1;
GPGPU-Sim PTX: 49 (potential) branch divergence @  PC=0x1538 (_1.ptx:1245) @%p35 bra BB4_3;
GPGPU-Sim PTX:    immediate post dominator      @  PC=0x1540 (_1.ptx:1249) ret;
GPGPU-Sim PTX: ... end of reconvergence points for _Z17mummergpuRCKernelP10MatchCoordPcPKiS3_ii
GPGPU-Sim PTX: ... done pre-decoding instructions for '_Z17mummergpuRCKernelP10MatchCoordPcPKiS3_ii'.
GPGPU-Sim PTX: finished parsing EMBEDDED .ptx file _1.ptx
Adding _cuobjdump_2.ptx with cubin handle 1
GPGPU-Sim PTX: extracting embedded .ptx to temporary file "_ptx_2MHciA"
Running: cat _ptx_2MHciA | sed 's/.version 1.5/.version 1.4/' | sed 's/, texmode_independent//' | sed 's/\(\.extern \.const\[1\] .b8 \w\+\)\[\]/\1\[1\]/' | sed 's/const\[.\]/const\[0\]/g' > _ptx2_sqTgRi
GPGPU-Sim PTX: generating ptxinfo using "$CUDA_INSTALL_PATH/bin/ptxas --gpu-name=sm_20 -v _ptx2_sqTgRi --output-file  /dev/null 2> _ptx_2MHciAinfo"
GPGPU-Sim PTX: Kernel '_Z15mummergpuKernelP10MatchCoordPcPKiS3_ii' : regs=22, lmem=0, smem=0, cmem=72
GPGPU-Sim PTX: Kernel '_Z17mummergpuRCKernelP10MatchCoordPcPKiS3_ii' : regs=21, lmem=0, smem=0, cmem=72
GPGPU-Sim PTX: removing ptxinfo using "rm -f _ptx_2MHciA _ptx2_sqTgRi _ptx_2MHciAinfo"
GPGPU-Sim PTX: loading globals with explicit initializers... 
GPGPU-Sim PTX: finished loading globals (0 bytes total).
GPGPU-Sim PTX: loading constants with explicit initializers...  done.
GPGPU-Sim PTX: __cudaRegisterFunction _Z15mummergpuKernelP10MatchCoordPcPKiS3_ii : hostFun 0x0x40ae30, fat_cubin_handle = 1
GPGPU-Sim PTX: in __cudaRegisterTexture:
GPGPU-Sim PTX:   int dim = 2
GPGPU-Sim PTX:   int norm = 0
GPGPU-Sim PTX:   int ext = 0
GPGPU-Sim PTX:   Execution warning: Not finished implementing "void __cudaRegisterTexture(void**, const textureReference*, const void**, const char*, int, int, int)"
GPGPU-Sim PTX: in __cudaRegisterTexture:
GPGPU-Sim PTX:   int dim = 2
GPGPU-Sim PTX:   int norm = 0
GPGPU-Sim PTX:   int ext = 0
GPGPU-Sim PTX:   Execution warning: Not finished implementing "void __cudaRegisterTexture(void**, const textureReference*, const void**, const char*, int, int, int)"
GPGPU-Sim PTX: in __cudaRegisterTexture:
GPGPU-Sim PTX:   int dim = 2
GPGPU-Sim PTX:   int norm = 0
GPGPU-Sim PTX:   int ext = 0
GPGPU-Sim PTX:   Execution warning: Not finished implementing "void __cudaRegisterTexture(void**, const textureReference*, const void**, const char*, int, int, int)"
