
	Building GPGPU-Sim version 3.2.2 (build ) with CUDA version 4.2

if [ ! -d lib/gcc-4.6.4/cuda-4020/release ]; then mkdir -p lib/gcc-4.6.4/cuda-4020/release; fi;
if [ ! -d /home/gpgpu-sim/Documents/Dynamic_GPU_Cache_Bypass_Project/gpgpu-sim_distribution/build/gcc-4.6.4/cuda-4020/release/libcuda ]; then mkdir -p /home/gpgpu-sim/Documents/Dynamic_GPU_Cache_Bypass_Project/gpgpu-sim_distribution/build/gcc-4.6.4/cuda-4020/release/libcuda; fi;
if [ ! -d /home/gpgpu-sim/Documents/Dynamic_GPU_Cache_Bypass_Project/gpgpu-sim_distribution/build/gcc-4.6.4/cuda-4020/release/cuda-sim ]; then mkdir -p /home/gpgpu-sim/Documents/Dynamic_GPU_Cache_Bypass_Project/gpgpu-sim_distribution/build/gcc-4.6.4/cuda-4020/release/cuda-sim; fi;
if [ ! -d /home/gpgpu-sim/Documents/Dynamic_GPU_Cache_Bypass_Project/gpgpu-sim_distribution/build/gcc-4.6.4/cuda-4020/release/cuda-sim/decuda_pred_table ]; then mkdir -p /home/gpgpu-sim/Documents/Dynamic_GPU_Cache_Bypass_Project/gpgpu-sim_distribution/build/gcc-4.6.4/cuda-4020/release/cuda-sim/decuda_pred_table; fi;
if [ ! -d /home/gpgpu-sim/Documents/Dynamic_GPU_Cache_Bypass_Project/gpgpu-sim_distribution/build/gcc-4.6.4/cuda-4020/release/gpgpu-sim ]; then mkdir -p /home/gpgpu-sim/Documents/Dynamic_GPU_Cache_Bypass_Project/gpgpu-sim_distribution/build/gcc-4.6.4/cuda-4020/release/gpgpu-sim; fi;
if [ ! -d /home/gpgpu-sim/Documents/Dynamic_GPU_Cache_Bypass_Project/gpgpu-sim_distribution/build/gcc-4.6.4/cuda-4020/release/libopencl ]; then mkdir -p /home/gpgpu-sim/Documents/Dynamic_GPU_Cache_Bypass_Project/gpgpu-sim_distribution/build/gcc-4.6.4/cuda-4020/release/libopencl; fi;
if [ ! -d /home/gpgpu-sim/Documents/Dynamic_GPU_Cache_Bypass_Project/gpgpu-sim_distribution/build/gcc-4.6.4/cuda-4020/release/libopencl/bin ]; then mkdir -p /home/gpgpu-sim/Documents/Dynamic_GPU_Cache_Bypass_Project/gpgpu-sim_distribution/build/gcc-4.6.4/cuda-4020/release/libopencl/bin; fi;
if [ ! -d /home/gpgpu-sim/Documents/Dynamic_GPU_Cache_Bypass_Project/gpgpu-sim_distribution/build/gcc-4.6.4/cuda-4020/release/intersim2 ]; then mkdir -p /home/gpgpu-sim/Documents/Dynamic_GPU_Cache_Bypass_Project/gpgpu-sim_distribution/build/gcc-4.6.4/cuda-4020/release/intersim2; fi;
if [ ! -d /home/gpgpu-sim/Documents/Dynamic_GPU_Cache_Bypass_Project/gpgpu-sim_distribution/build/gcc-4.6.4/cuda-4020/release/cuobjdump_to_ptxplus ]; then mkdir -p /home/gpgpu-sim/Documents/Dynamic_GPU_Cache_Bypass_Project/gpgpu-sim_distribution/build/gcc-4.6.4/cuda-4020/release/cuobjdump_to_ptxplus; fi;
if [ ! -d /home/gpgpu-sim/Documents/Dynamic_GPU_Cache_Bypass_Project/gpgpu-sim_distribution/build/gcc-4.6.4/cuda-4020/release/gpuwattch ]; then mkdir -p /home/gpgpu-sim/Documents/Dynamic_GPU_Cache_Bypass_Project/gpgpu-sim_distribution/build/gcc-4.6.4/cuda-4020/release/gpuwattch; fi;
if [ ! -d /home/gpgpu-sim/Documents/Dynamic_GPU_Cache_Bypass_Project/gpgpu-sim_distribution/build/gcc-4.6.4/cuda-4020/release/gpuwattch/cacti ]; then mkdir -p /home/gpgpu-sim/Documents/Dynamic_GPU_Cache_Bypass_Project/gpgpu-sim_distribution/build/gcc-4.6.4/cuda-4020/release/gpuwattch/cacti; fi;
make -C ./src/cuda-sim/ depend
make[1]: Entering directory `/home/gpgpu-sim/Documents/Dynamic_GPU_Cache_Bypass_Project/gpgpu-sim_distribution/src/cuda-sim'
touch /home/gpgpu-sim/Documents/Dynamic_GPU_Cache_Bypass_Project/gpgpu-sim_distribution/build/gcc-4.6.4/cuda-4020/release/cuda-sim/Makefile.makedepend
makedepend -f/home/gpgpu-sim/Documents/Dynamic_GPU_Cache_Bypass_Project/gpgpu-sim_distribution/build/gcc-4.6.4/cuda-4020/release/cuda-sim/Makefile.makedepend -p/home/gpgpu-sim/Documents/Dynamic_GPU_Cache_Bypass_Project/gpgpu-sim_distribution/build/gcc-4.6.4/cuda-4020/release/cuda-sim/ cuda_device_printf.cc cuda-sim.cc instructions.cc memory.cc ptx_ir.cc ptx_loader.cc ptx_parser.cc ptx_sim.cc ptx-stats.cc 2> /dev/null
make[1]: `depend' is up to date.
make[1]: Leaving directory `/home/gpgpu-sim/Documents/Dynamic_GPU_Cache_Bypass_Project/gpgpu-sim_distribution/src/cuda-sim'
make -C ./src/cuda-sim/
make[1]: Entering directory `/home/gpgpu-sim/Documents/Dynamic_GPU_Cache_Bypass_Project/gpgpu-sim_distribution/src/cuda-sim'
touch /home/gpgpu-sim/Documents/Dynamic_GPU_Cache_Bypass_Project/gpgpu-sim_distribution/build/gcc-4.6.4/cuda-4020/release/cuda-sim/Makefile.makedepend
makedepend -f/home/gpgpu-sim/Documents/Dynamic_GPU_Cache_Bypass_Project/gpgpu-sim_distribution/build/gcc-4.6.4/cuda-4020/release/cuda-sim/Makefile.makedepend -p/home/gpgpu-sim/Documents/Dynamic_GPU_Cache_Bypass_Project/gpgpu-sim_distribution/build/gcc-4.6.4/cuda-4020/release/cuda-sim/ cuda_device_printf.cc cuda-sim.cc instructions.cc memory.cc ptx_ir.cc ptx_loader.cc ptx_parser.cc ptx_sim.cc ptx-stats.cc 2> /dev/null
ar rcs /home/gpgpu-sim/Documents/Dynamic_GPU_Cache_Bypass_Project/gpgpu-sim_distribution/build/gcc-4.6.4/cuda-4020/release/cuda-sim/libgpgpu_ptx_sim.a /home/gpgpu-sim/Documents/Dynamic_GPU_Cache_Bypass_Project/gpgpu-sim_distribution/build/gcc-4.6.4/cuda-4020/release/cuda-sim/ptx.tab.o /home/gpgpu-sim/Documents/Dynamic_GPU_Cache_Bypass_Project/gpgpu-sim_distribution/build/gcc-4.6.4/cuda-4020/release/cuda-sim/lex.ptx_.o /home/gpgpu-sim/Documents/Dynamic_GPU_Cache_Bypass_Project/gpgpu-sim_distribution/build/gcc-4.6.4/cuda-4020/release/cuda-sim/ptxinfo.tab.o /home/gpgpu-sim/Documents/Dynamic_GPU_Cache_Bypass_Project/gpgpu-sim_distribution/build/gcc-4.6.4/cuda-4020/release/cuda-sim/lex.ptxinfo_.o /home/gpgpu-sim/Documents/Dynamic_GPU_Cache_Bypass_Project/gpgpu-sim_distribution/build/gcc-4.6.4/cuda-4020/release/cuda-sim/ptx_parser.o /home/gpgpu-sim/Documents/Dynamic_GPU_Cache_Bypass_Project/gpgpu-sim_distribution/build/gcc-4.6.4/cuda-4020/release/cuda-sim/ptx_loader.o /home/gpgpu-sim/Documents/Dynamic_GPU_Cache_Bypass_Project/gpgpu-sim_distribution/build/gcc-4.6.4/cuda-4020/release/cuda-sim/cuda_device_printf.o /home/gpgpu-sim/Documents/Dynamic_GPU_Cache_Bypass_Project/gpgpu-sim_distribution/build/gcc-4.6.4/cuda-4020/release/cuda-sim/instructions.o /home/gpgpu-sim/Documents/Dynamic_GPU_Cache_Bypass_Project/gpgpu-sim_distribution/build/gcc-4.6.4/cuda-4020/release/cuda-sim/cuda-sim.o /home/gpgpu-sim/Documents/Dynamic_GPU_Cache_Bypass_Project/gpgpu-sim_distribution/build/gcc-4.6.4/cuda-4020/release/cuda-sim/ptx_ir.o /home/gpgpu-sim/Documents/Dynamic_GPU_Cache_Bypass_Project/gpgpu-sim_distribution/build/gcc-4.6.4/cuda-4020/release/cuda-sim/ptx_sim.o  /home/gpgpu-sim/Documents/Dynamic_GPU_Cache_Bypass_Project/gpgpu-sim_distribution/build/gcc-4.6.4/cuda-4020/release/cuda-sim/memory.o /home/gpgpu-sim/Documents/Dynamic_GPU_Cache_Bypass_Project/gpgpu-sim_distribution/build/gcc-4.6.4/cuda-4020/release/cuda-sim/ptx-stats.o /home/gpgpu-sim/Documents/Dynamic_GPU_Cache_Bypass_Project/gpgpu-sim_distribution/build/gcc-4.6.4/cuda-4020/release/cuda-sim/decuda_pred_table/decuda_pred_table.o /home/gpgpu-sim/Documents/Dynamic_GPU_Cache_Bypass_Project/gpgpu-sim_distribution/build/gcc-4.6.4/cuda-4020/release/cuda-sim/ptx.tab.o /home/gpgpu-sim/Documents/Dynamic_GPU_Cache_Bypass_Project/gpgpu-sim_distribution/build/gcc-4.6.4/cuda-4020/release/cuda-sim/lex.ptx_.o /home/gpgpu-sim/Documents/Dynamic_GPU_Cache_Bypass_Project/gpgpu-sim_distribution/build/gcc-4.6.4/cuda-4020/release/cuda-sim/ptxinfo.tab.o /home/gpgpu-sim/Documents/Dynamic_GPU_Cache_Bypass_Project/gpgpu-sim_distribution/build/gcc-4.6.4/cuda-4020/release/cuda-sim/lex.ptxinfo_.o
make[1]: Leaving directory `/home/gpgpu-sim/Documents/Dynamic_GPU_Cache_Bypass_Project/gpgpu-sim_distribution/src/cuda-sim'
make -C ./src/gpgpu-sim/ depend
make[1]: Entering directory `/home/gpgpu-sim/Documents/Dynamic_GPU_Cache_Bypass_Project/gpgpu-sim_distribution/src/gpgpu-sim'
touch /home/gpgpu-sim/Documents/Dynamic_GPU_Cache_Bypass_Project/gpgpu-sim_distribution/build/gcc-4.6.4/cuda-4020/release/gpgpu-sim/Makefile.makedepend
makedepend -f/home/gpgpu-sim/Documents/Dynamic_GPU_Cache_Bypass_Project/gpgpu-sim_distribution/build/gcc-4.6.4/cuda-4020/release/gpgpu-sim/Makefile.makedepend -p/home/gpgpu-sim/Documents/Dynamic_GPU_Cache_Bypass_Project/gpgpu-sim_distribution/build/gcc-4.6.4/cuda-4020/release/gpgpu-sim/ addrdec.cc dram.cc dram_sched.cc gpu-cache.cc gpu-misc.cc gpu-sim.cc histogram.cc icnt_wrapper.cc l2cache.cc mem_fetch.cc mem_latency_stat.cc power_interface.cc power_stat.cc scoreboard.cc shader.cc stack.cc stat-tool.cc traffic_breakdown.cc visualizer.cc 2> /dev/null
make[1]: `depend' is up to date.
make[1]: Leaving directory `/home/gpgpu-sim/Documents/Dynamic_GPU_Cache_Bypass_Project/gpgpu-sim_distribution/src/gpgpu-sim'
make -C ./src/gpgpu-sim/
make[1]: Entering directory `/home/gpgpu-sim/Documents/Dynamic_GPU_Cache_Bypass_Project/gpgpu-sim_distribution/src/gpgpu-sim'
touch /home/gpgpu-sim/Documents/Dynamic_GPU_Cache_Bypass_Project/gpgpu-sim_distribution/build/gcc-4.6.4/cuda-4020/release/gpgpu-sim/Makefile.makedepend
makedepend -f/home/gpgpu-sim/Documents/Dynamic_GPU_Cache_Bypass_Project/gpgpu-sim_distribution/build/gcc-4.6.4/cuda-4020/release/gpgpu-sim/Makefile.makedepend -p/home/gpgpu-sim/Documents/Dynamic_GPU_Cache_Bypass_Project/gpgpu-sim_distribution/build/gcc-4.6.4/cuda-4020/release/gpgpu-sim/ addrdec.cc dram.cc dram_sched.cc gpu-cache.cc gpu-misc.cc gpu-sim.cc histogram.cc icnt_wrapper.cc l2cache.cc mem_fetch.cc mem_latency_stat.cc power_interface.cc power_stat.cc scoreboard.cc shader.cc stack.cc stat-tool.cc traffic_breakdown.cc visualizer.cc 2> /dev/null
g++  -O3 -g3 -fPIC -Wall -DTRACING_ON=1 -std=c++0x -I/home/gpgpu-sim/gpgpu-sim_distribution/src/gpuwattch/ -DGPGPUSIM_POWER_MODEL -o /home/gpgpu-sim/Documents/Dynamic_GPU_Cache_Bypass_Project/gpgpu-sim_distribution/build/gcc-4.6.4/cuda-4020/release/gpgpu-sim/gpu-cache.o -c gpu-cache.cc
ar rcs  /home/gpgpu-sim/Documents/Dynamic_GPU_Cache_Bypass_Project/gpgpu-sim_distribution/build/gcc-4.6.4/cuda-4020/release/gpgpu-sim/libgpu_uarch_sim.a /home/gpgpu-sim/Documents/Dynamic_GPU_Cache_Bypass_Project/gpgpu-sim_distribution/build/gcc-4.6.4/cuda-4020/release/gpgpu-sim/addrdec.o /home/gpgpu-sim/Documents/Dynamic_GPU_Cache_Bypass_Project/gpgpu-sim_distribution/build/gcc-4.6.4/cuda-4020/release/gpgpu-sim/dram.o /home/gpgpu-sim/Documents/Dynamic_GPU_Cache_Bypass_Project/gpgpu-sim_distribution/build/gcc-4.6.4/cuda-4020/release/gpgpu-sim/dram_sched.o /home/gpgpu-sim/Documents/Dynamic_GPU_Cache_Bypass_Project/gpgpu-sim_distribution/build/gcc-4.6.4/cuda-4020/release/gpgpu-sim/gpu-cache.o /home/gpgpu-sim/Documents/Dynamic_GPU_Cache_Bypass_Project/gpgpu-sim_distribution/build/gcc-4.6.4/cuda-4020/release/gpgpu-sim/gpu-misc.o /home/gpgpu-sim/Documents/Dynamic_GPU_Cache_Bypass_Project/gpgpu-sim_distribution/build/gcc-4.6.4/cuda-4020/release/gpgpu-sim/gpu-sim.o /home/gpgpu-sim/Documents/Dynamic_GPU_Cache_Bypass_Project/gpgpu-sim_distribution/build/gcc-4.6.4/cuda-4020/release/gpgpu-sim/histogram.o /home/gpgpu-sim/Documents/Dynamic_GPU_Cache_Bypass_Project/gpgpu-sim_distribution/build/gcc-4.6.4/cuda-4020/release/gpgpu-sim/icnt_wrapper.o /home/gpgpu-sim/Documents/Dynamic_GPU_Cache_Bypass_Project/gpgpu-sim_distribution/build/gcc-4.6.4/cuda-4020/release/gpgpu-sim/l2cache.o /home/gpgpu-sim/Documents/Dynamic_GPU_Cache_Bypass_Project/gpgpu-sim_distribution/build/gcc-4.6.4/cuda-4020/release/gpgpu-sim/mem_fetch.o /home/gpgpu-sim/Documents/Dynamic_GPU_Cache_Bypass_Project/gpgpu-sim_distribution/build/gcc-4.6.4/cuda-4020/release/gpgpu-sim/mem_latency_stat.o /home/gpgpu-sim/Documents/Dynamic_GPU_Cache_Bypass_Project/gpgpu-sim_distribution/build/gcc-4.6.4/cuda-4020/release/gpgpu-sim/power_interface.o /home/gpgpu-sim/Documents/Dynamic_GPU_Cache_Bypass_Project/gpgpu-sim_distribution/build/gcc-4.6.4/cuda-4020/release/gpgpu-sim/power_stat.o /home/gpgpu-sim/Documents/Dynamic_GPU_Cache_Bypass_Project/gpgpu-sim_distribution/build/gcc-4.6.4/cuda-4020/release/gpgpu-sim/scoreboard.o /home/gpgpu-sim/Documents/Dynamic_GPU_Cache_Bypass_Project/gpgpu-sim_distribution/build/gcc-4.6.4/cuda-4020/release/gpgpu-sim/shader.o /home/gpgpu-sim/Documents/Dynamic_GPU_Cache_Bypass_Project/gpgpu-sim_distribution/build/gcc-4.6.4/cuda-4020/release/gpgpu-sim/stack.o /home/gpgpu-sim/Documents/Dynamic_GPU_Cache_Bypass_Project/gpgpu-sim_distribution/build/gcc-4.6.4/cuda-4020/release/gpgpu-sim/stat-tool.o /home/gpgpu-sim/Documents/Dynamic_GPU_Cache_Bypass_Project/gpgpu-sim_distribution/build/gcc-4.6.4/cuda-4020/release/gpgpu-sim/traffic_breakdown.o /home/gpgpu-sim/Documents/Dynamic_GPU_Cache_Bypass_Project/gpgpu-sim_distribution/build/gcc-4.6.4/cuda-4020/release/gpgpu-sim/visualizer.o
make[1]: Leaving directory `/home/gpgpu-sim/Documents/Dynamic_GPU_Cache_Bypass_Project/gpgpu-sim_distribution/src/gpgpu-sim'
make "CREATE_LIBRARY=1" "DEBUG=0" -C ./src/intersim2
make[1]: Entering directory `/home/gpgpu-sim/Documents/Dynamic_GPU_Cache_Bypass_Project/gpgpu-sim_distribution/src/intersim2'
make[1]: Nothing to be done for `all'.
make[1]: Leaving directory `/home/gpgpu-sim/Documents/Dynamic_GPU_Cache_Bypass_Project/gpgpu-sim_distribution/src/intersim2'
make -C ./src/ depend
make[1]: Entering directory `/home/gpgpu-sim/Documents/Dynamic_GPU_Cache_Bypass_Project/gpgpu-sim_distribution/src'
touch /home/gpgpu-sim/Documents/Dynamic_GPU_Cache_Bypass_Project/gpgpu-sim_distribution/build/gcc-4.6.4/cuda-4020/release/Makefile.makedepend
makedepend -f/home/gpgpu-sim/Documents/Dynamic_GPU_Cache_Bypass_Project/gpgpu-sim_distribution/build/gcc-4.6.4/cuda-4020/release/Makefile.makedepend -p/home/gpgpu-sim/Documents/Dynamic_GPU_Cache_Bypass_Project/gpgpu-sim_distribution/build/gcc-4.6.4/cuda-4020/release/ abstract_hardware_model.cc debug.cc gpgpusim_entrypoint.cc option_parser.cc statwrapper.cc stream_manager.cc trace.cc 2> /dev/null
make[1]: `depend' is up to date.
make[1]: Leaving directory `/home/gpgpu-sim/Documents/Dynamic_GPU_Cache_Bypass_Project/gpgpu-sim_distribution/src'
make -C ./src/
make[1]: Entering directory `/home/gpgpu-sim/Documents/Dynamic_GPU_Cache_Bypass_Project/gpgpu-sim_distribution/src'
touch /home/gpgpu-sim/Documents/Dynamic_GPU_Cache_Bypass_Project/gpgpu-sim_distribution/build/gcc-4.6.4/cuda-4020/release/Makefile.makedepend
makedepend -f/home/gpgpu-sim/Documents/Dynamic_GPU_Cache_Bypass_Project/gpgpu-sim_distribution/build/gcc-4.6.4/cuda-4020/release/Makefile.makedepend -p/home/gpgpu-sim/Documents/Dynamic_GPU_Cache_Bypass_Project/gpgpu-sim_distribution/build/gcc-4.6.4/cuda-4020/release/ abstract_hardware_model.cc debug.cc gpgpusim_entrypoint.cc option_parser.cc statwrapper.cc stream_manager.cc trace.cc 2> /dev/null
make   -C ./gpgpu-sim
make[2]: Entering directory `/home/gpgpu-sim/Documents/Dynamic_GPU_Cache_Bypass_Project/gpgpu-sim_distribution/src/gpgpu-sim'
touch /home/gpgpu-sim/Documents/Dynamic_GPU_Cache_Bypass_Project/gpgpu-sim_distribution/build/gcc-4.6.4/cuda-4020/release/gpgpu-sim/Makefile.makedepend
makedepend -f/home/gpgpu-sim/Documents/Dynamic_GPU_Cache_Bypass_Project/gpgpu-sim_distribution/build/gcc-4.6.4/cuda-4020/release/gpgpu-sim/Makefile.makedepend -p/home/gpgpu-sim/Documents/Dynamic_GPU_Cache_Bypass_Project/gpgpu-sim_distribution/build/gcc-4.6.4/cuda-4020/release/gpgpu-sim/ addrdec.cc dram.cc dram_sched.cc gpu-cache.cc gpu-misc.cc gpu-sim.cc histogram.cc icnt_wrapper.cc l2cache.cc mem_fetch.cc mem_latency_stat.cc power_interface.cc power_stat.cc scoreboard.cc shader.cc stack.cc stat-tool.cc traffic_breakdown.cc visualizer.cc 2> /dev/null
ar rcs  /home/gpgpu-sim/Documents/Dynamic_GPU_Cache_Bypass_Project/gpgpu-sim_distribution/build/gcc-4.6.4/cuda-4020/release/gpgpu-sim/libgpu_uarch_sim.a /home/gpgpu-sim/Documents/Dynamic_GPU_Cache_Bypass_Project/gpgpu-sim_distribution/build/gcc-4.6.4/cuda-4020/release/gpgpu-sim/addrdec.o /home/gpgpu-sim/Documents/Dynamic_GPU_Cache_Bypass_Project/gpgpu-sim_distribution/build/gcc-4.6.4/cuda-4020/release/gpgpu-sim/dram.o /home/gpgpu-sim/Documents/Dynamic_GPU_Cache_Bypass_Project/gpgpu-sim_distribution/build/gcc-4.6.4/cuda-4020/release/gpgpu-sim/dram_sched.o /home/gpgpu-sim/Documents/Dynamic_GPU_Cache_Bypass_Project/gpgpu-sim_distribution/build/gcc-4.6.4/cuda-4020/release/gpgpu-sim/gpu-cache.o /home/gpgpu-sim/Documents/Dynamic_GPU_Cache_Bypass_Project/gpgpu-sim_distribution/build/gcc-4.6.4/cuda-4020/release/gpgpu-sim/gpu-misc.o /home/gpgpu-sim/Documents/Dynamic_GPU_Cache_Bypass_Project/gpgpu-sim_distribution/build/gcc-4.6.4/cuda-4020/release/gpgpu-sim/gpu-sim.o /home/gpgpu-sim/Documents/Dynamic_GPU_Cache_Bypass_Project/gpgpu-sim_distribution/build/gcc-4.6.4/cuda-4020/release/gpgpu-sim/histogram.o /home/gpgpu-sim/Documents/Dynamic_GPU_Cache_Bypass_Project/gpgpu-sim_distribution/build/gcc-4.6.4/cuda-4020/release/gpgpu-sim/icnt_wrapper.o /home/gpgpu-sim/Documents/Dynamic_GPU_Cache_Bypass_Project/gpgpu-sim_distribution/build/gcc-4.6.4/cuda-4020/release/gpgpu-sim/l2cache.o /home/gpgpu-sim/Documents/Dynamic_GPU_Cache_Bypass_Project/gpgpu-sim_distribution/build/gcc-4.6.4/cuda-4020/release/gpgpu-sim/mem_fetch.o /home/gpgpu-sim/Documents/Dynamic_GPU_Cache_Bypass_Project/gpgpu-sim_distribution/build/gcc-4.6.4/cuda-4020/release/gpgpu-sim/mem_latency_stat.o /home/gpgpu-sim/Documents/Dynamic_GPU_Cache_Bypass_Project/gpgpu-sim_distribution/build/gcc-4.6.4/cuda-4020/release/gpgpu-sim/power_interface.o /home/gpgpu-sim/Documents/Dynamic_GPU_Cache_Bypass_Project/gpgpu-sim_distribution/build/gcc-4.6.4/cuda-4020/release/gpgpu-sim/power_stat.o /home/gpgpu-sim/Documents/Dynamic_GPU_Cache_Bypass_Project/gpgpu-sim_distribution/build/gcc-4.6.4/cuda-4020/release/gpgpu-sim/scoreboard.o /home/gpgpu-sim/Documents/Dynamic_GPU_Cache_Bypass_Project/gpgpu-sim_distribution/build/gcc-4.6.4/cuda-4020/release/gpgpu-sim/shader.o /home/gpgpu-sim/Documents/Dynamic_GPU_Cache_Bypass_Project/gpgpu-sim_distribution/build/gcc-4.6.4/cuda-4020/release/gpgpu-sim/stack.o /home/gpgpu-sim/Documents/Dynamic_GPU_Cache_Bypass_Project/gpgpu-sim_distribution/build/gcc-4.6.4/cuda-4020/release/gpgpu-sim/stat-tool.o /home/gpgpu-sim/Documents/Dynamic_GPU_Cache_Bypass_Project/gpgpu-sim_distribution/build/gcc-4.6.4/cuda-4020/release/gpgpu-sim/traffic_breakdown.o /home/gpgpu-sim/Documents/Dynamic_GPU_Cache_Bypass_Project/gpgpu-sim_distribution/build/gcc-4.6.4/cuda-4020/release/gpgpu-sim/visualizer.o
make[2]: Leaving directory `/home/gpgpu-sim/Documents/Dynamic_GPU_Cache_Bypass_Project/gpgpu-sim_distribution/src/gpgpu-sim'
ar rcs  /home/gpgpu-sim/Documents/Dynamic_GPU_Cache_Bypass_Project/gpgpu-sim_distribution/build/gcc-4.6.4/cuda-4020/release/libgpgpusim.a /home/gpgpu-sim/Documents/Dynamic_GPU_Cache_Bypass_Project/gpgpu-sim_distribution/build/gcc-4.6.4/cuda-4020/release/abstract_hardware_model.o /home/gpgpu-sim/Documents/Dynamic_GPU_Cache_Bypass_Project/gpgpu-sim_distribution/build/gcc-4.6.4/cuda-4020/release/debug.o /home/gpgpu-sim/Documents/Dynamic_GPU_Cache_Bypass_Project/gpgpu-sim_distribution/build/gcc-4.6.4/cuda-4020/release/gpgpusim_entrypoint.o /home/gpgpu-sim/Documents/Dynamic_GPU_Cache_Bypass_Project/gpgpu-sim_distribution/build/gcc-4.6.4/cuda-4020/release/option_parser.o /home/gpgpu-sim/Documents/Dynamic_GPU_Cache_Bypass_Project/gpgpu-sim_distribution/build/gcc-4.6.4/cuda-4020/release/statwrapper.o /home/gpgpu-sim/Documents/Dynamic_GPU_Cache_Bypass_Project/gpgpu-sim_distribution/build/gcc-4.6.4/cuda-4020/release/stream_manager.o /home/gpgpu-sim/Documents/Dynamic_GPU_Cache_Bypass_Project/gpgpu-sim_distribution/build/gcc-4.6.4/cuda-4020/release/trace.o /home/gpgpu-sim/Documents/Dynamic_GPU_Cache_Bypass_Project/gpgpu-sim_distribution/build/gcc-4.6.4/cuda-4020/release/gpgpu-sim/*.o
make[1]: Leaving directory `/home/gpgpu-sim/Documents/Dynamic_GPU_Cache_Bypass_Project/gpgpu-sim_distribution/src'
make -C /home/gpgpu-sim/gpgpu-sim_distribution/src/gpuwattch/ depend
make[1]: Entering directory `/home/gpgpu-sim/Documents/Dynamic_GPU_Cache_Bypass_Project/gpgpu-sim_distribution/src/gpuwattch'
make[2]: Entering directory `/home/gpgpu-sim/Documents/Dynamic_GPU_Cache_Bypass_Project/gpgpu-sim_distribution/src/gpuwattch'
touch /home/gpgpu-sim/Documents/Dynamic_GPU_Cache_Bypass_Project/gpgpu-sim_distribution/build/gcc-4.6.4/cuda-4020/release/gpuwattch/Makefile.makedepend
makedepend -f/home/gpgpu-sim/Documents/Dynamic_GPU_Cache_Bypass_Project/gpgpu-sim_distribution/build/gcc-4.6.4/cuda-4020/release/gpuwattch/Makefile.makedepend -p/home/gpgpu-sim/Documents/Dynamic_GPU_Cache_Bypass_Project/gpgpu-sim_distribution/build/gcc-4.6.4/cuda-4020/release/gpuwattch/ Ucache.cc XML_Parse.cc arbiter.cc area.cc array.cc bank.cc basic_circuit.cc basic_components.cc cacti_interface.cc component.cc core.cc crossbar.cc decoder.cc htree2.cc interconnect.cc io.cc iocontrollers.cc logic.cc main.cc mat.cc memoryctrl.cc noc.cc nuca.cc parameter.cc processor.cc router.cc sharedcache.cc subarray.cc technology.cc uca.cc wire.cc xmlParser.cc gpgpu_sim_wrapper.cc  2> /dev/null
make -C ./cacti/ depend
make[3]: Entering directory `/home/gpgpu-sim/Documents/Dynamic_GPU_Cache_Bypass_Project/gpgpu-sim_distribution/src/gpuwattch/cacti'
make[4]: Entering directory `/home/gpgpu-sim/Documents/Dynamic_GPU_Cache_Bypass_Project/gpgpu-sim_distribution/src/gpuwattch/cacti'
touch /home/gpgpu-sim/Documents/Dynamic_GPU_Cache_Bypass_Project/gpgpu-sim_distribution/build/gcc-4.6.4/cuda-4020/release/gpuwattch/cacti/Makefile.makedepend
makedepend -f/home/gpgpu-sim/Documents/Dynamic_GPU_Cache_Bypass_Project/gpgpu-sim_distribution/build/gcc-4.6.4/cuda-4020/release/gpuwattch/cacti/Makefile.makedepend -p/home/gpgpu-sim/Documents/Dynamic_GPU_Cache_Bypass_Project/gpgpu-sim_distribution/build/gcc-4.6.4/cuda-4020/release/gpuwattch/cacti/ area.cc bank.cc mat.cc main.cc Ucache.cc io.cc technology.cc basic_circuit.cc parameter.cc decoder.cc component.cc uca.cc subarray.cc wire.cc htree2.cc cacti_interface.cc router.cc nuca.cc crossbar.cc arbiter.cc  2> /dev/null
make[4]: Nothing to be done for `depend'.
make[4]: Leaving directory `/home/gpgpu-sim/Documents/Dynamic_GPU_Cache_Bypass_Project/gpgpu-sim_distribution/src/gpuwattch/cacti'
make[3]: Leaving directory `/home/gpgpu-sim/Documents/Dynamic_GPU_Cache_Bypass_Project/gpgpu-sim_distribution/src/gpuwattch/cacti'
make[2]: Nothing to be done for `depend'.
make[2]: Leaving directory `/home/gpgpu-sim/Documents/Dynamic_GPU_Cache_Bypass_Project/gpgpu-sim_distribution/src/gpuwattch'
make[1]: Leaving directory `/home/gpgpu-sim/Documents/Dynamic_GPU_Cache_Bypass_Project/gpgpu-sim_distribution/src/gpuwattch'
make -C /home/gpgpu-sim/gpgpu-sim_distribution/src/gpuwattch/ 
make[1]: Entering directory `/home/gpgpu-sim/Documents/Dynamic_GPU_Cache_Bypass_Project/gpgpu-sim_distribution/src/gpuwattch'
make[2]: Entering directory `/home/gpgpu-sim/Documents/Dynamic_GPU_Cache_Bypass_Project/gpgpu-sim_distribution/src/gpuwattch'
touch /home/gpgpu-sim/Documents/Dynamic_GPU_Cache_Bypass_Project/gpgpu-sim_distribution/build/gcc-4.6.4/cuda-4020/release/gpuwattch/Makefile.makedepend
makedepend -f/home/gpgpu-sim/Documents/Dynamic_GPU_Cache_Bypass_Project/gpgpu-sim_distribution/build/gcc-4.6.4/cuda-4020/release/gpuwattch/Makefile.makedepend -p/home/gpgpu-sim/Documents/Dynamic_GPU_Cache_Bypass_Project/gpgpu-sim_distribution/build/gcc-4.6.4/cuda-4020/release/gpuwattch/ Ucache.cc XML_Parse.cc arbiter.cc area.cc array.cc bank.cc basic_circuit.cc basic_components.cc cacti_interface.cc component.cc core.cc crossbar.cc decoder.cc htree2.cc interconnect.cc io.cc iocontrollers.cc logic.cc main.cc mat.cc memoryctrl.cc noc.cc nuca.cc parameter.cc processor.cc router.cc sharedcache.cc subarray.cc technology.cc uca.cc wire.cc xmlParser.cc gpgpu_sim_wrapper.cc  2> /dev/null
make -C ./cacti/ depend
make[3]: Entering directory `/home/gpgpu-sim/Documents/Dynamic_GPU_Cache_Bypass_Project/gpgpu-sim_distribution/src/gpuwattch/cacti'
make[4]: Entering directory `/home/gpgpu-sim/Documents/Dynamic_GPU_Cache_Bypass_Project/gpgpu-sim_distribution/src/gpuwattch/cacti'
touch /home/gpgpu-sim/Documents/Dynamic_GPU_Cache_Bypass_Project/gpgpu-sim_distribution/build/gcc-4.6.4/cuda-4020/release/gpuwattch/cacti/Makefile.makedepend
makedepend -f/home/gpgpu-sim/Documents/Dynamic_GPU_Cache_Bypass_Project/gpgpu-sim_distribution/build/gcc-4.6.4/cuda-4020/release/gpuwattch/cacti/Makefile.makedepend -p/home/gpgpu-sim/Documents/Dynamic_GPU_Cache_Bypass_Project/gpgpu-sim_distribution/build/gcc-4.6.4/cuda-4020/release/gpuwattch/cacti/ area.cc bank.cc mat.cc main.cc Ucache.cc io.cc technology.cc basic_circuit.cc parameter.cc decoder.cc component.cc uca.cc subarray.cc wire.cc htree2.cc cacti_interface.cc router.cc nuca.cc crossbar.cc arbiter.cc  2> /dev/null
make[4]: Nothing to be done for `depend'.
make[4]: Leaving directory `/home/gpgpu-sim/Documents/Dynamic_GPU_Cache_Bypass_Project/gpgpu-sim_distribution/src/gpuwattch/cacti'
make[3]: Leaving directory `/home/gpgpu-sim/Documents/Dynamic_GPU_Cache_Bypass_Project/gpgpu-sim_distribution/src/gpuwattch/cacti'
make[2]: Nothing to be done for `all'.
make[2]: Leaving directory `/home/gpgpu-sim/Documents/Dynamic_GPU_Cache_Bypass_Project/gpgpu-sim_distribution/src/gpuwattch'
make[1]: Leaving directory `/home/gpgpu-sim/Documents/Dynamic_GPU_Cache_Bypass_Project/gpgpu-sim_distribution/src/gpuwattch'
make -C ./libcuda/ depend
make[1]: Entering directory `/home/gpgpu-sim/Documents/Dynamic_GPU_Cache_Bypass_Project/gpgpu-sim_distribution/libcuda'
touch /home/gpgpu-sim/Documents/Dynamic_GPU_Cache_Bypass_Project/gpgpu-sim_distribution/build/gcc-4.6.4/cuda-4020/release/libcuda/Makefile.makedepend
makedepend -f/home/gpgpu-sim/Documents/Dynamic_GPU_Cache_Bypass_Project/gpgpu-sim_distribution/build/gcc-4.6.4/cuda-4020/release/libcuda/Makefile.makedepend -p/home/gpgpu-sim/Documents/Dynamic_GPU_Cache_Bypass_Project/gpgpu-sim_distribution/build/gcc-4.6.4/cuda-4020/release/libcuda/ cuda_runtime_api.cc 2> /dev/null
make[1]: `depend' is up to date.
make[1]: Leaving directory `/home/gpgpu-sim/Documents/Dynamic_GPU_Cache_Bypass_Project/gpgpu-sim_distribution/libcuda'
make -C ./libcuda/
make[1]: Entering directory `/home/gpgpu-sim/Documents/Dynamic_GPU_Cache_Bypass_Project/gpgpu-sim_distribution/libcuda'
touch /home/gpgpu-sim/Documents/Dynamic_GPU_Cache_Bypass_Project/gpgpu-sim_distribution/build/gcc-4.6.4/cuda-4020/release/libcuda/Makefile.makedepend
makedepend -f/home/gpgpu-sim/Documents/Dynamic_GPU_Cache_Bypass_Project/gpgpu-sim_distribution/build/gcc-4.6.4/cuda-4020/release/libcuda/Makefile.makedepend -p/home/gpgpu-sim/Documents/Dynamic_GPU_Cache_Bypass_Project/gpgpu-sim_distribution/build/gcc-4.6.4/cuda-4020/release/libcuda/ cuda_runtime_api.cc 2> /dev/null
echo /home/gpgpu-sim/Documents/Dynamic_GPU_Cache_Bypass_Project/gpgpu-sim_distribution/build/gcc-4.6.4/cuda-4020/release/libcuda/cuda_runtime_api.o /home/gpgpu-sim/Documents/Dynamic_GPU_Cache_Bypass_Project/gpgpu-sim_distribution/build/gcc-4.6.4/cuda-4020/release/libcuda/cuobjdump_lexer.o /home/gpgpu-sim/Documents/Dynamic_GPU_Cache_Bypass_Project/gpgpu-sim_distribution/build/gcc-4.6.4/cuda-4020/release/libcuda/cuobjdump_parser.o
/home/gpgpu-sim/Documents/Dynamic_GPU_Cache_Bypass_Project/gpgpu-sim_distribution/build/gcc-4.6.4/cuda-4020/release/libcuda/cuda_runtime_api.o /home/gpgpu-sim/Documents/Dynamic_GPU_Cache_Bypass_Project/gpgpu-sim_distribution/build/gcc-4.6.4/cuda-4020/release/libcuda/cuobjdump_lexer.o /home/gpgpu-sim/Documents/Dynamic_GPU_Cache_Bypass_Project/gpgpu-sim_distribution/build/gcc-4.6.4/cuda-4020/release/libcuda/cuobjdump_parser.o
ar rcs /home/gpgpu-sim/Documents/Dynamic_GPU_Cache_Bypass_Project/gpgpu-sim_distribution/build/gcc-4.6.4/cuda-4020/release/libcuda/libcuda.a /home/gpgpu-sim/Documents/Dynamic_GPU_Cache_Bypass_Project/gpgpu-sim_distribution/build/gcc-4.6.4/cuda-4020/release/libcuda/cuda_runtime_api.o /home/gpgpu-sim/Documents/Dynamic_GPU_Cache_Bypass_Project/gpgpu-sim_distribution/build/gcc-4.6.4/cuda-4020/release/libcuda/cuobjdump_lexer.o /home/gpgpu-sim/Documents/Dynamic_GPU_Cache_Bypass_Project/gpgpu-sim_distribution/build/gcc-4.6.4/cuda-4020/release/libcuda/cuobjdump_parser.o
make[1]: Leaving directory `/home/gpgpu-sim/Documents/Dynamic_GPU_Cache_Bypass_Project/gpgpu-sim_distribution/libcuda'
g++ -shared -Wl,-soname,libcudart.so \
			/home/gpgpu-sim/Documents/Dynamic_GPU_Cache_Bypass_Project/gpgpu-sim_distribution/build/gcc-4.6.4/cuda-4020/release/libcuda/*.o \
			/home/gpgpu-sim/Documents/Dynamic_GPU_Cache_Bypass_Project/gpgpu-sim_distribution/build/gcc-4.6.4/cuda-4020/release/cuda-sim/*.o \
			/home/gpgpu-sim/Documents/Dynamic_GPU_Cache_Bypass_Project/gpgpu-sim_distribution/build/gcc-4.6.4/cuda-4020/release/cuda-sim/decuda_pred_table/*.o \
			/home/gpgpu-sim/Documents/Dynamic_GPU_Cache_Bypass_Project/gpgpu-sim_distribution/build/gcc-4.6.4/cuda-4020/release/gpgpu-sim/*.o \
			/home/gpgpu-sim/Documents/Dynamic_GPU_Cache_Bypass_Project/gpgpu-sim_distribution/build/gcc-4.6.4/cuda-4020/release/intersim2/*.o \
			/home/gpgpu-sim/Documents/Dynamic_GPU_Cache_Bypass_Project/gpgpu-sim_distribution/build/gcc-4.6.4/cuda-4020/release/*.o -lm -lz -lGL -pthread \
			/home/gpgpu-sim/Documents/Dynamic_GPU_Cache_Bypass_Project/gpgpu-sim_distribution/build/gcc-4.6.4/cuda-4020/release/gpuwattch/*.o \
			-o lib/gcc-4.6.4/cuda-4020/release/libcudart.so
if [ ! -f lib/gcc-4.6.4/cuda-4020/release/libcudart.so.2 ]; then ln -s libcudart.so lib/gcc-4.6.4/cuda-4020/release/libcudart.so.2; fi
if [ ! -f lib/gcc-4.6.4/cuda-4020/release/libcudart.so.3 ]; then ln -s libcudart.so lib/gcc-4.6.4/cuda-4020/release/libcudart.so.3; fi
if [ ! -f lib/gcc-4.6.4/cuda-4020/release/libcudart.so.4 ]; then ln -s libcudart.so lib/gcc-4.6.4/cuda-4020/release/libcudart.so.4; fi
Warning: gpgpu-sim is building without opencl support. Make sure NVOPENCL_LIBDIR and NVOPENCL_INCDIR are set
make -C ./cuobjdump_to_ptxplus/ depend
make[1]: Entering directory `/home/gpgpu-sim/Documents/Dynamic_GPU_Cache_Bypass_Project/gpgpu-sim_distribution/cuobjdump_to_ptxplus'
touch /home/gpgpu-sim/Documents/Dynamic_GPU_Cache_Bypass_Project/gpgpu-sim_distribution/build/gcc-4.6.4/cuda-4020/release/cuobjdump_to_ptxplus/Makefile.makedepend
makedepend -f/home/gpgpu-sim/Documents/Dynamic_GPU_Cache_Bypass_Project/gpgpu-sim_distribution/build/gcc-4.6.4/cuda-4020/release/cuobjdump_to_ptxplus/Makefile.makedepend cuobjdumpInst.cc cuobjdumpInstList.cc cuobjdump_to_ptxplus.cc elf_lexer.cc elf_parser.cc header_lexer.cc header_parser.cc sass_lexer.cc sass_parser.cc 2> /dev/null
make[1]: Leaving directory `/home/gpgpu-sim/Documents/Dynamic_GPU_Cache_Bypass_Project/gpgpu-sim_distribution/cuobjdump_to_ptxplus'
make -C ./cuobjdump_to_ptxplus/
make[1]: Entering directory `/home/gpgpu-sim/Documents/Dynamic_GPU_Cache_Bypass_Project/gpgpu-sim_distribution/cuobjdump_to_ptxplus'
make[1]: Nothing to be done for `all'.
make[1]: Leaving directory `/home/gpgpu-sim/Documents/Dynamic_GPU_Cache_Bypass_Project/gpgpu-sim_distribution/cuobjdump_to_ptxplus'
